SARS2_Nprot-A0239_A_504_1_SARS2_Nprot-A0240+A+504+1_LIG
     RDKit          3D

 25 27  0  0  0  0  0  0  0  0999 V2000
   -3.9230  -11.5460   -5.6280 O   0  0  0  0  0  0  0  0  0  0  0  0
   -3.2650  -10.2810   -5.5560 S   0  0  0  0  0  0  0  0  0  0  0  0
   -2.3220   -9.9120   -6.5660 O   0  0  0  0  0  0  0  0  0  0  0  0
   -4.4350   -9.1460   -5.5730 N   0  0  0  0  0  0  0  0  0  0  0  0
   -4.7050   -8.2180   -6.6940 C   0  0  0  0  0  0  0  0  0  0  0  0
   -4.5050   -6.7630   -6.3410 C   0  0  0  0  0  0  0  0  0  0  0  0
   -3.1780   -6.5200   -5.9090 O   0  0  0  0  0  0  0  0  0  0  0  0
   -5.3210   -9.0650   -4.4080 C   0  0  0  0  0  0  0  0  0  0  0  0
   -2.4530  -10.1840   -3.9990 C   0  0  0  0  0  0  0  0  0  0  0  0
   -1.5950   -9.1260   -3.7360 C   0  0  0  0  0  0  0  0  0  0  0  0
   -0.8450   -9.1310   -2.5700 C   0  0  0  0  0  0  0  0  0  0  0  0
   -0.9420  -10.1910   -1.6740 C   0  0  0  0  0  0  0  0  0  0  0  0
   -1.8260  -11.2290   -1.9410 C   0  0  0  0  0  0  0  0  0  0  0  0
   -2.5900  -11.2230   -3.0940 C   0  0  0  0  0  0  0  0  0  0  0  0
   -0.1150  -10.2560   -0.5620 N   0  0  0  0  0  0  0  0  0  0  0  0
   -0.5790  -10.1490    0.8130 C   0  0  0  0  0  0  0  0  0  0  0  0
   -1.1790  -11.3960    1.4220 C   0  0  0  0  0  0  0  0  0  0  0  0
   -0.7530  -12.6910    1.0540 C   0  0  0  0  0  0  0  0  0  0  0  0
    0.2340  -13.2520    0.1830 C   0  0  0  0  0  0  0  0  0  0  0  0
    0.1260  -14.6030    0.2890 C   0  0  0  0  0  0  0  0  0  0  0  0
   -0.8690  -14.9320    1.1760 N   0  0  0  0  0  0  0  0  0  0  0  0
   -1.4170  -13.7770    1.6540 C   0  0  0  0  0  0  0  0  0  0  0  0
   -2.4160  -13.6900    2.5450 N   0  0  0  0  0  0  0  0  0  0  0  0
   -2.7820  -12.4450    2.8780 C   0  0  0  0  0  0  0  0  0  0  0  0
   -2.2030  -11.2990    2.3620 C   0  0  0  0  0  0  0  0  0  0  0  0
  8  4  1  0
  5  4  1  0
  6  5  1  0
  7  6  1  0
  4  2  1  0
  3  2  2  0
  2  1  2  0
  9  2  1  0
  9 14  2  0
 14 13  1  0
 13 12  2  0
 15 12  1  0
 16 15  1  0
 17 16  1  0
 17 25  1  0
 25 24  2  0
 24 23  1  0
 23 22  2  0
 22 21  1  0
 21 20  1  0
 20 19  2  0
 19 18  1  0
 18 17  2  0
 22 18  1  0
 12 11  1  0
 11 10  2  0
 10  9  1  0
M  END
