SARS2_Nprot-x1135_A_504_1_SARS2_Nprot-A0240+A+504+1__LIG
     RDKit          3D

 26 29  0  0  0  0  0  0  0  0999 V2000
   -4.9510  -16.9620    3.9460 O   0  0  0  0  0  0  0  0  0  0  0  0
   -4.0700  -16.5570    3.1960 C   0  0  0  0  0  0  0  0  0  0  0  0
   -3.4870  -17.3470    2.1430 C   0  0  0  0  0  0  0  0  0  0  0  0
   -2.5420  -16.8720    1.3220 C   0  0  0  0  0  0  0  0  0  0  0  0
   -2.0640  -15.5300    1.4610 C   0  0  0  0  0  0  0  0  0  0  0  0
   -2.6050  -14.7330    2.4760 C   0  0  0  0  0  0  0  0  0  0  0  0
   -3.5850  -15.2660    3.3180 N   0  0  0  0  0  0  0  0  0  0  0  0
   -4.1070  -14.4500    4.4040 C   0  0  0  0  0  0  0  0  0  0  0  0
   -2.1780  -13.4210    2.6360 C   0  0  0  0  0  0  0  0  0  0  0  0
   -1.2160  -12.9060    1.7880 C   0  0  0  0  0  0  0  0  0  0  0  0
   -0.6710  -13.6710    0.7700 C   0  0  0  0  0  0  0  0  0  0  0  0
   -1.0960  -14.9840    0.6220 C   0  0  0  0  0  0  0  0  0  0  0  0
    0.3180  -13.0750   -0.1970 C   0  0  0  0  0  0  0  0  0  0  0  0
   -0.3390  -12.3020   -1.2500 N   0  0  0  0  0  0  0  0  0  0  0  0
   -0.7410  -10.9780   -0.7970 C   0  0  0  0  0  0  0  0  0  0  0  0
   -1.5020  -10.3510   -1.8760 C   0  0  0  0  0  0  0  0  0  0  0  0
   -2.6560  -10.8490   -2.4410 C   0  0  0  0  0  0  0  0  0  0  0  0
   -3.0460   -9.9720   -3.3900 N   0  0  0  0  0  0  0  0  0  0  0  0
   -2.1980   -8.9090   -3.4820 N   0  0  0  0  0  0  0  0  0  0  0  0
   -1.2750   -9.1510   -2.5660 C   0  0  0  0  0  0  0  0  0  0  0  0
   -4.1870  -10.0500   -4.2420 C   0  0  0  0  0  0  0  0  0  0  0  0
   -4.6680  -11.2890   -4.6400 C   0  0  0  0  0  0  0  0  0  0  0  0
   -5.7740  -11.3560   -5.4700 C   0  0  0  0  0  0  0  0  0  0  0  0
   -6.3980  -10.2000   -5.8970 C   0  0  0  0  0  0  0  0  0  0  0  0
   -5.9170   -8.9710   -5.4970 C   0  0  0  0  0  0  0  0  0  0  0  0
   -4.8090   -8.8870   -4.6700 C   0  0  0  0  0  0  0  0  0  0  0  0
  8  7  1  0
  7  2  1  0
  2  1  2  0
  3  2  1  0
  4  3  2  0
  5  4  1  0
  5 12  2  0
 12 11  1  0
 13 11  1  0
 14 13  1  0
 15 14  1  0
 16 15  1  0
 16 20  1  0
 20 19  2  0
 19 18  1  0
 21 18  1  0
 21 26  2  0
 26 25  1  0
 25 24  2  0
 24 23  1  0
 23 22  2  0
 22 21  1  0
 18 17  1  0
 17 16  2  0
 11 10  2  0
 10  9  1  0
  9  6  2  0
  7  6  1  0
  6  5  1  0
M  END
$$$$
