SARS2_Nprot-x1498_A_504_0_1_SARS2_Nprot-A0240+A+504+0+1__LIG
     RDKit          3D

 30 32  0  0  0  0  0  0  0  0999 V2000
   -0.5320  -15.2360   -0.7750 O   0  0  0  0  0  0  0  0  0  0  0  0
   -0.3930  -14.0830   -0.3830 C   0  0  0  0  0  0  0  0  0  0  0  0
    0.4220  -13.7910    0.8520 C   0  0  0  0  0  0  0  0  0  0  0  0
   -0.2170  -12.7630    1.5960 O   0  0  0  0  0  0  0  0  0  0  0  0
   -1.3300  -13.1110    2.3160 C   0  0  0  0  0  0  0  0  0  0  0  0
   -1.8240  -14.4070    2.3770 C   0  0  0  0  0  0  0  0  0  0  0  0
   -2.9270  -14.6730    3.1740 C   0  0  0  0  0  0  0  0  0  0  0  0
   -3.5200  -13.6610    3.8980 C   0  0  0  0  0  0  0  0  0  0  0  0
   -3.0250  -12.3710    3.8230 C   0  0  0  0  0  0  0  0  0  0  0  0
   -1.9280  -12.0650    3.0220 C   0  0  0  0  0  0  0  0  0  0  0  0
   -1.4440  -10.6460    2.8760 C   0  0  0  0  0  0  0  0  0  0  0  0
   -0.9280  -13.0000   -0.9780 N   0  0  0  0  0  0  0  0  0  0  0  0
   -1.8600  -12.9340   -2.0390 C   0  0  0  0  0  0  0  0  0  0  0  0
   -2.2160  -11.6830   -2.5320 C   0  0  0  0  0  0  0  0  0  0  0  0
   -3.1730  -11.5850   -3.5400 C   0  0  0  0  0  0  0  0  0  0  0  0
   -3.7440  -12.7690   -3.9940 C   0  0  0  0  0  0  0  0  0  0  0  0
   -3.4110  -13.9810   -3.5450 N   0  0  0  0  0  0  0  0  0  0  0  0
   -2.4790  -14.0500   -2.5910 C   0  0  0  0  0  0  0  0  0  0  0  0
   -3.4760  -10.2800   -4.1760 C   0  0  0  0  0  0  0  0  0  0  0  0
   -4.7840   -9.9100   -4.4780 C   0  0  0  0  0  0  0  0  0  0  0  0
   -5.0610   -8.7190   -5.1270 C   0  0  0  0  0  0  0  0  0  0  0  0
   -4.0230   -7.8770   -5.4910 C   0  0  0  0  0  0  0  0  0  0  0  0
   -2.7160   -8.2210   -5.1930 C   0  0  0  0  0  0  0  0  0  0  0  0
   -2.4500   -9.4120   -4.5420 C   0  0  0  0  0  0  0  0  0  0  0  0
   -4.2730   -6.7170   -6.1750 O   0  0  0  0  0  0  0  0  0  0  0  0
   -3.1600   -5.8780   -6.5200 C   0  0  0  0  0  0  0  0  0  0  0  0
   -3.6420   -4.4510   -6.4530 C   0  0  0  0  0  0  0  0  0  0  0  0
   -2.6610   -3.4250   -6.8050 N   0  0  0  0  0  0  0  0  0  0  0  0
   -1.7740   -3.8870   -7.8700 C   0  0  0  0  0  0  0  0  0  0  0  0
   -3.3390   -2.2000   -7.2260 C   0  0  0  0  0  0  0  0  0  0  0  0
 11 10  1  0
 10  9  1  0
  9  8  2  0
  8  7  1  0
  7  6  2  0
  6  5  1  0
 10  5  2  0
  5  4  1  0
  4  3  1  0
  3  2  1  0
  2  1  2  0
 12  2  1  0
 13 12  1  0
 13 18  2  0
 18 17  1  0
 17 16  2  0
 16 15  1  0
 19 15  1  0
 19 24  2  0
 24 23  1  0
 23 22  2  0
 25 22  1  0
 26 25  1  0
 27 26  1  0
 28 27  1  0
 30 28  1  0
 29 28  1  0
 22 21  1  0
 21 20  2  0
 20 19  1  0
 15 14  2  0
 14 13  1  0
M  END
$$$$
