SARS2_Nprot-x1361_A_504_1_SARS2_Nprot-A0240+A+504+1__LIG
     RDKit          3D

 24 27  0  0  0  0  0  0  0  0999 V2000
   -3.7240  -10.5270    5.4870 Cl  0  0  0  0  0  0  0  0  0  0  0  0
   -3.0220  -11.4930    4.2340 C   0  0  0  0  0  0  0  0  0  0  0  0
   -3.2970  -12.8620    4.1750 C   0  0  0  0  0  0  0  0  0  0  0  0
   -4.0600  -13.8210    4.8950 C   0  0  0  0  0  0  0  0  0  0  0  0
   -3.8320  -14.9840    4.2980 N   0  0  0  0  0  0  0  0  0  0  0  0
   -2.9910  -14.9190    3.2370 N   0  0  0  0  0  0  0  0  0  0  0  0
   -2.6560  -13.6070    3.1640 C   0  0  0  0  0  0  0  0  0  0  0  0
   -1.7660  -12.9770    2.2620 C   0  0  0  0  0  0  0  0  0  0  0  0
   -1.5080  -11.6150    2.3680 C   0  0  0  0  0  0  0  0  0  0  0  0
   -2.1550  -10.8760    3.3520 C   0  0  0  0  0  0  0  0  0  0  0  0
   -0.5050  -10.9590    1.4560 C   0  0  0  0  0  0  0  0  0  0  0  0
   -1.1290  -10.3060    0.3080 N   0  0  0  0  0  0  0  0  0  0  0  0
   -0.9030  -11.0290   -0.9310 C   0  0  0  0  0  0  0  0  0  0  0  0
   -1.5800  -10.2690   -1.9850 C   0  0  0  0  0  0  0  0  0  0  0  0
   -2.7660  -10.6150   -2.5930 C   0  0  0  0  0  0  0  0  0  0  0  0
   -3.0430   -9.6570   -3.5000 N   0  0  0  0  0  0  0  0  0  0  0  0
   -2.0890   -8.6840   -3.5230 N   0  0  0  0  0  0  0  0  0  0  0  0
   -1.2160   -9.0660   -2.6060 C   0  0  0  0  0  0  0  0  0  0  0  0
   -4.1680   -9.5720   -4.3740 C   0  0  0  0  0  0  0  0  0  0  0  0
   -4.8560  -10.7230   -4.7270 C   0  0  0  0  0  0  0  0  0  0  0  0
   -5.9520  -10.6310   -5.5690 C   0  0  0  0  0  0  0  0  0  0  0  0
   -6.3580   -9.4050   -6.0550 C   0  0  0  0  0  0  0  0  0  0  0  0
   -5.6690   -8.2620   -5.7010 C   0  0  0  0  0  0  0  0  0  0  0  0
   -4.5710   -8.3380   -4.8610 C   0  0  0  0  0  0  0  0  0  0  0  0
  2  1  1  0
  2 10  2  0
 10  9  1  0
 11  9  1  0
 12 11  1  0
 13 12  1  0
 14 13  1  0
 14 18  1  0
 18 17  2  0
 17 16  1  0
 19 16  1  0
 19 24  2  0
 24 23  1  0
 23 22  2  0
 22 21  1  0
 21 20  2  0
 20 19  1  0
 16 15  1  0
 15 14  2  0
  9  8  2  0
  8  7  1  0
  7  6  2  0
  6  5  1  0
  5  4  1  0
  4  3  2  0
  3  2  1  0
  7  3  1  0
M  END
$$$$
