SARS2_Nprot-x1410_A_504_1_SARS2_Nprot-A0240+A+504+1__LIG
     RDKit          3D

 21 23  0  0  0  0  0  0  0  0999 V2000
   -1.8070  -12.2560   -1.8150 O   0  0  0  0  0  0  0  0  0  0  0  0
   -1.2890  -11.2910   -1.2710 C   0  0  0  0  0  0  0  0  0  0  0  0
   -1.1760  -10.0750   -1.8390 N   0  0  0  0  0  0  0  0  0  0  0  0
   -2.0020   -9.5050   -2.8340 C   0  0  0  0  0  0  0  0  0  0  0  0
   -3.1980  -10.0720   -3.2160 C   0  0  0  0  0  0  0  0  0  0  0  0
   -3.9920   -9.4660   -4.2160 C   0  0  0  0  0  0  0  0  0  0  0  0
   -5.2330   -9.9830   -4.6320 C   0  0  0  0  0  0  0  0  0  0  0  0
   -5.9500   -9.3320   -5.5880 C   0  0  0  0  0  0  0  0  0  0  0  0
   -5.4310   -8.1680   -6.1330 C   0  0  0  0  0  0  0  0  0  0  0  0
   -4.2700   -7.6340   -5.7880 N   0  0  0  0  0  0  0  0  0  0  0  0
   -3.5400   -8.2780   -4.8230 C   0  0  0  0  0  0  0  0  0  0  0  0
   -2.3070   -7.7280   -4.4120 C   0  0  0  0  0  0  0  0  0  0  0  0
   -1.5690   -8.3310   -3.4420 C   0  0  0  0  0  0  0  0  0  0  0  0
   -0.7110  -11.3890    0.1170 C   0  0  0  0  0  0  0  0  0  0  0  0
   -1.7720  -11.3570    1.2090 C   0  0  0  0  0  0  0  0  0  0  0  0
   -1.2080  -11.7190    2.5730 C   0  0  0  0  0  0  0  0  0  0  0  0
   -2.1960  -11.6410    3.6640 N   0  0  0  0  0  0  0  0  0  0  0  0
   -2.9690  -12.6770    4.1290 C   0  0  0  0  0  0  0  0  0  0  0  0
   -3.7400  -12.2110    5.1560 C   0  0  0  0  0  0  0  0  0  0  0  0
   -3.4340  -10.8460    5.3280 C   0  0  0  0  0  0  0  0  0  0  0  0
   -2.4900  -10.5180    4.4020 C   0  0  0  0  0  0  0  0  0  0  0  0
  2  1  2  0
 14  2  1  0
 15 14  1  0
 16 15  1  0
 17 16  1  0
 17 21  1  0
 21 20  2  0
 20 19  1  0
 19 18  2  0
 18 17  1  0
  3  2  1  0
  4  3  1  0
  4 13  2  0
 13 12  1  0
 12 11  2  0
 11 10  1  0
 10  9  2  0
  9  8  1  0
  8  7  2  0
  7  6  1  0
 11  6  1  0
  6  5  2  0
  5  4  1  0
M  END
$$$$
