Nprot-x0392_A_401_1_SARS2_Nprot-x1396+A+504+1_LIG
     RDKit          3D

 26 28  0  0  0  0  0  0  0  0999 V2000
   23.0630    1.6410    8.7590 C   0  0  0  0  0  0  0  0  0  0  0  0
   23.7710    2.8780    9.1280 C   0  0  0  0  0  0  0  0  0  0  0  0
   22.7130    3.8050    9.5720 C   0  0  0  0  0  0  0  0  0  0  0  0
   21.7030    2.0010    8.5890 O   0  0  0  0  0  0  0  0  0  0  0  0
   21.4430    3.0560    9.5040 C   0  0  1  0  0  0  0  0  0  0  0  0
   21.0420    2.5200   10.8580 C   0  0  0  0  0  0  0  0  0  0  0  0
   20.9730    3.5890   11.8320 N   0  0  0  0  0  0  0  0  0  0  0  0
   20.0290    4.6080   11.7970 C   0  0  0  0  0  0  0  0  0  0  0  0
   19.0270    4.6290   10.8310 C   0  0  0  0  0  0  0  0  0  0  0  0
   18.1080    5.6580   10.8580 C   0  0  0  0  0  0  0  0  0  0  0  0
   18.1200    6.6420   11.7620 N   0  0  0  0  0  0  0  0  0  0  0  0
   19.0930    6.6100   12.6800 C   0  0  0  0  0  0  0  0  0  0  0  0
   20.0680    5.6340   12.7340 C   0  0  0  0  0  0  0  0  0  0  0  0
   22.3630    2.0500    7.8210 C   0  0  0  0  0  0  0  0  0  0  0  0
   22.8500    3.4390    7.8210 C   0  0  0  0  0  0  0  0  0  0  0  0
   22.4540    3.8800    9.1860 C   0  0  0  0  0  0  0  0  0  0  0  0
   22.6380    1.5650    9.1350 O   0  0  0  0  0  0  0  0  0  0  0  0
   22.5870    2.6780   10.0440 C   0  0  2  0  0  0  0  0  0  0  0  0
   21.3930    2.5260   10.9460 C   0  0  0  0  0  0  0  0  0  0  0  0
   21.2190    3.6580   11.8310 N   0  0  0  0  0  0  0  0  0  0  0  0
   20.2110    4.6150   11.7330 C   0  0  0  0  0  0  0  0  0  0  0  0
   19.2520    4.5750   10.7240 C   0  0  0  0  0  0  0  0  0  0  0  0
   18.2490    5.5270   10.7310 C   0  0  0  0  0  0  0  0  0  0  0  0
   18.1440    6.4910   11.6530 N   0  0  0  0  0  0  0  0  0  0  0  0
   19.0790    6.5200   12.6090 C   0  0  0  0  0  0  0  0  0  0  0  0
   20.1220    5.6200   12.6900 C   0  0  0  0  0  0  0  0  0  0  0  0
  7  6  1  0
  8  7  1  0
  8 13  2  0
 13 12  1  0
 12 11  2  0
 11 10  1  0
 10  9  2  0
  9  8  1  0
  5  6  1  1
  5  3  1  0
  3  2  1  0
  2  1  1  0
  4  1  1  0
  5  4  1  0
 20 19  1  0
 21 20  1  0
 21 26  2  0
 26 25  1  0
 25 24  2  0
 24 23  1  0
 23 22  2  0
 22 21  1  0
 18 19  1  1
 18 16  1  0
 16 15  1  0
 15 14  1  0
 17 14  1  0
 18 17  1  0
M  END
