SARS2_Nprot-x1396_A_504_0_1_SARS2_Nprot-x1396+A+504+0+1_LIG
     RDKit          3D

 22 23  0  0  0  0  0  0  0  0999 V2000
   16.4960    5.6420   10.4890 O   0  0  0  0  0  0  0  0  0  0  0  0
   17.7030    5.6600   10.7080 C   0  0  0  0  0  0  0  0  0  0  0  0
   18.6300    4.8020    9.8820 C   0  0  0  0  0  0  0  0  0  0  0  0
   19.9630    4.8800   10.3710 O   0  0  0  0  0  0  0  0  0  0  0  0
   20.7530    3.7730   10.2160 C   0  0  0  0  0  0  0  0  0  0  0  0
   20.9880    3.0420   11.3810 C   0  0  0  0  0  0  0  0  0  0  0  0
   20.3840    3.4510   12.7000 C   0  0  0  0  0  0  0  0  0  0  0  0
   21.7950    1.9120   11.2800 C   0  0  0  0  0  0  0  0  0  0  0  0
   22.3440    1.5290   10.0680 C   0  0  0  0  0  0  0  0  0  0  0  0
   22.0960    2.2670    8.9330 C   0  0  0  0  0  0  0  0  0  0  0  0
   21.2980    3.3970    8.9950 C   0  0  0  0  0  0  0  0  0  0  0  0
   18.2700    6.4330   11.6750 N   0  0  0  0  0  0  0  0  0  0  0  0
   17.5430    7.2470   12.5120 C   0  0  0  0  0  0  0  0  0  0  0  0
   16.4050    7.8220   12.0720 N   0  0  0  0  0  0  0  0  0  0  0  0
   16.0030    8.4800   13.1300 C   0  0  0  0  0  0  0  0  0  0  0  0
   17.8750    7.5160   13.7650 N   0  0  0  0  0  0  0  0  0  0  0  0
   16.8510    8.3150   14.1430 N   0  0  0  0  0  0  0  0  0  0  0  0
   16.7760    8.8100   15.5070 C   0  0  0  0  0  0  0  0  0  0  0  0
   16.4950    7.6740   16.4720 C   0  0  0  0  0  0  0  0  0  0  0  0
   15.8440    6.6970   16.1190 O   0  0  0  0  0  0  0  0  0  0  0  0
   17.0170    7.7830   17.6870 N   0  0  0  0  0  0  0  0  0  0  0  0
   16.8180    6.7750   18.7110 C   0  0  0  0  0  0  0  0  0  0  0  0
 22 21  1  0
 21 19  1  0
 20 19  2  0
 19 18  1  0
 18 17  1  0
 17 15  1  0
 15 14  2  0
 14 13  1  0
 13 12  1  0
 12  2  1  0
  2  1  2  0
  3  2  1  0
  4  3  1  0
  5  4  1  0
  5 11  2  0
 11 10  1  0
 10  9  2  0
  9  8  1  0
  8  6  2  0
  6  5  1  0
  7  6  1  0
 16 13  2  0
 17 16  1  0
M  END
