SARS2_Nprot-x1651_A_405_1_SARS2_Nprot-A0240+A+504+1_LIG
     RDKit          3D

 62 68  0  0  0  0  0  0  0  0999 V2000
   -1.1350  -14.7030   -0.5120 O   0  0  0  0  0  0  0  0  0  0  0  0
   -0.8750  -13.5050   -0.4480 C   0  0  0  0  0  0  0  0  0  0  0  0
   -0.2660  -12.9120    0.7960 C   0  0  0  0  0  0  0  0  0  0  0  0
   -0.9160  -13.4220    1.9330 O   0  0  0  0  0  0  0  0  0  0  0  0
   -1.7280  -12.6040    2.6660 C   0  0  0  0  0  0  0  0  0  0  0  0
   -1.4910  -11.2530    2.9830 C   0  0  0  0  0  0  0  0  0  0  0  0
   -2.4500  -10.5720    3.7160 C   0  0  0  0  0  0  0  0  0  0  0  0
   -3.6040  -11.2210    4.1340 C   0  0  0  0  0  0  0  0  0  0  0  0
   -3.8120  -12.5530    3.8220 C   0  0  0  0  0  0  0  0  0  0  0  0
   -2.8840  -13.2760    3.0770 C   0  0  0  0  0  0  0  0  0  0  0  0
   -3.1260  -14.7310    2.7140 C   0  0  0  0  0  0  0  0  0  0  0  0
   -0.9400  -12.6560   -1.4760 N   0  0  0  0  0  0  0  0  0  0  0  0
   -1.9710  -12.2430   -2.3370 C   0  0  0  0  0  0  0  0  0  0  0  0
   -1.9250  -10.9240   -2.7770 C   0  0  0  0  0  0  0  0  0  0  0  0
   -2.7040  -10.5270   -3.8630 C   0  0  0  0  0  0  0  0  0  0  0  0
   -3.5430  -11.4860   -4.4170 C   0  0  0  0  0  0  0  0  0  0  0  0
   -3.6390  -12.7420   -3.9810 N   0  0  0  0  0  0  0  0  0  0  0  0
   -2.8660  -13.1020   -2.9580 C   0  0  0  0  0  0  0  0  0  0  0  0
   -2.5940   -9.1640   -4.4470 C   0  0  0  0  0  0  0  0  0  0  0  0
   -1.3820   -8.4820   -4.5070 C   0  0  0  0  0  0  0  0  0  0  0  0
   -1.2250   -7.2740   -5.0660 N   0  0  0  0  0  0  0  0  0  0  0  0
   -2.3040   -6.6770   -5.5870 C   0  0  0  0  0  0  0  0  0  0  0  0
   -3.5540   -7.2790   -5.5930 C   0  0  0  0  0  0  0  0  0  0  0  0
   -3.6870   -8.5290   -5.0160 C   0  0  0  0  0  0  0  0  0  0  0  0
   -2.1930   -5.2560   -6.1420 C   0  0  0  0  0  0  0  0  0  0  0  0
   -1.3280   -5.3700   -7.2720 N   0  0  0  0  0  0  0  0  0  0  0  0
   -3.6090   -4.8060   -6.5530 C   0  0  0  0  0  0  0  0  0  0  0  0
   -3.7420   -3.3010   -6.6180 C   0  0  0  0  0  0  0  0  0  0  0  0
   -3.3470   -2.7030   -5.4020 O   0  0  0  0  0  0  0  0  0  0  0  0
   -1.9470   -2.8740   -5.2860 C   0  0  0  0  0  0  0  0  0  0  0  0
   -1.5930   -4.3320   -5.0620 C   0  0  0  0  0  0  0  0  0  0  0  0
   -0.8210  -15.0700   -1.4300 O   0  0  0  0  0  0  0  0  0  0  0  0
   -0.8830  -14.0570   -0.7460 C   0  0  0  0  0  0  0  0  0  0  0  0
   -0.8020  -14.1650    0.7570 C   0  0  0  0  0  0  0  0  0  0  0  0
   -0.8020  -12.8380    1.2210 O   0  0  0  0  0  0  0  0  0  0  0  0
   -1.5860  -12.4850    2.2930 C   0  0  0  0  0  0  0  0  0  0  0  0
   -2.3810  -13.3440    3.0310 C   0  0  0  0  0  0  0  0  0  0  0  0
   -3.2430  -12.8100    3.9780 C   0  0  0  0  0  0  0  0  0  0  0  0
   -3.3010  -11.4430    4.1780 C   0  0  0  0  0  0  0  0  0  0  0  0
   -2.4770  -10.6000    3.4510 C   0  0  0  0  0  0  0  0  0  0  0  0
   -1.6030  -11.1060    2.4940 C   0  0  0  0  0  0  0  0  0  0  0  0
   -0.7020  -10.2310    1.6790 C   0  0  0  0  0  0  0  0  0  0  0  0
   -0.9960  -12.8000   -1.2380 N   0  0  0  0  0  0  0  0  0  0  0  0
   -1.8450  -12.3040   -2.2610 C   0  0  0  0  0  0  0  0  0  0  0  0
   -1.8000  -10.9850   -2.7090 C   0  0  0  0  0  0  0  0  0  0  0  0
   -2.6040  -10.5880   -3.7810 C   0  0  0  0  0  0  0  0  0  0  0  0
   -3.4520  -11.5490   -4.3190 C   0  0  0  0  0  0  0  0  0  0  0  0
   -3.5270  -12.8090   -3.8920 N   0  0  0  0  0  0  0  0  0  0  0  0
   -2.7340  -13.1700   -2.8840 C   0  0  0  0  0  0  0  0  0  0  0  0
   -2.5230   -9.2210   -4.3690 C   0  0  0  0  0  0  0  0  0  0  0  0
   -1.3250   -8.5180   -4.4500 C   0  0  0  0  0  0  0  0  0  0  0  0
   -1.1940   -7.3140   -5.0260 N   0  0  0  0  0  0  0  0  0  0  0  0
   -2.2860   -6.7410   -5.5460 C   0  0  0  0  0  0  0  0  0  0  0  0
   -3.5270   -7.3660   -5.5330 C   0  0  0  0  0  0  0  0  0  0  0  0
   -3.6340   -8.6110   -4.9360 C   0  0  0  0  0  0  0  0  0  0  0  0
   -2.1930   -5.3220   -6.1100 C   0  0  0  0  0  0  0  0  0  0  0  0
   -1.3350   -5.4270   -7.2480 N   0  0  0  0  0  0  0  0  0  0  0  0
   -3.6090   -4.8720   -6.5170 C   0  0  0  0  0  0  0  0  0  0  0  0
   -3.7300   -3.3680   -6.6240 C   0  0  0  0  0  0  0  0  0  0  0  0
   -3.3260   -2.7400   -5.4260 O   0  0  0  0  0  0  0  0  0  0  0  0
   -1.9270   -2.9220   -5.3050 C   0  0  0  0  0  0  0  0  0  0  0  0
   -1.5870   -4.3780   -5.0480 C   0  0  0  0  0  0  0  0  0  0  0  0
 11 10  1  0
 10  9  1  0
  9  8  2  0
  8  7  1  0
  7  6  2  0
  6  5  1  0
 10  5  2  0
  5  4  1  0
  4  3  1  0
  3  2  1  0
  2  1  2  0
 12  2  1  0
 13 12  1  0
 13 18  2  0
 18 17  1  0
 17 16  2  0
 16 15  1  0
 19 15  1  0
 19 24  2  0
 24 23  1  0
 23 22  2  0
 25 22  1  0
 26 25  1  0
 25 31  1  0
 31 30  1  0
 30 29  1  0
 29 28  1  0
 28 27  1  0
 27 25  1  0
 22 21  1  0
 21 20  2  0
 20 19  1  0
 15 14  2  0
 14 13  1  0
 42 41  1  0
 41 40  1  0
 40 39  2  0
 39 38  1  0
 38 37  2  0
 37 36  1  0
 41 36  2  0
 36 35  1  0
 35 34  1  0
 34 33  1  0
 33 32  2  0
 43 33  1  0
 44 43  1  0
 44 49  2  0
 49 48  1  0
 48 47  2  0
 47 46  1  0
 50 46  1  0
 50 55  2  0
 55 54  1  0
 54 53  2  0
 56 53  1  0
 57 56  1  0
 56 62  1  0
 62 61  1  0
 61 60  1  0
 60 59  1  0
 59 58  1  0
 58 56  1  0
 53 52  1  0
 52 51  2  0
 51 50  1  0
 46 45  2  0
 45 44  1  0
M  END
