SARS2_Nprot-x1299_A_405_1_SARS2_Nprot-A0240+A+504+1_LIG
     RDKit          3D

 50 54  0  0  0  0  0  0  0  0999 V2000
   -2.7720  -11.3120   -0.0250 O   0  0  0  0  0  0  0  0  0  0  0  0
   -1.5850  -10.9890   -0.0140 C   0  0  0  0  0  0  0  0  0  0  0  0
   -0.7760  -11.1430    1.2520 C   0  0  0  0  0  0  0  0  0  0  0  0
   -1.1530  -12.3230    1.9620 O   0  0  0  0  0  0  0  0  0  0  0  0
   -0.6010  -13.5250    1.5900 C   0  0  0  0  0  0  0  0  0  0  0  0
    0.5360  -13.6540    0.7990 C   0  0  0  0  0  0  0  0  0  0  0  0
    1.0180  -14.9190    0.5060 C   0  0  0  0  0  0  0  0  0  0  0  0
    0.3780  -16.0370    0.9980 C   0  0  0  0  0  0  0  0  0  0  0  0
   -0.7520  -15.9000    1.7850 C   0  0  0  0  0  0  0  0  0  0  0  0
   -1.2690  -14.6450    2.0950 C   0  0  0  0  0  0  0  0  0  0  0  0
   -2.5200  -14.5040    2.9250 C   0  0  0  0  0  0  0  0  0  0  0  0
   -0.9240  -10.4540   -1.0660 N   0  0  0  0  0  0  0  0  0  0  0  0
   -1.4510   -9.9220   -2.2680 C   0  0  0  0  0  0  0  0  0  0  0  0
   -2.5740  -10.4510   -2.8980 C   0  0  0  0  0  0  0  0  0  0  0  0
   -3.0090   -9.9000   -4.1030 C   0  0  0  0  0  0  0  0  0  0  0  0
   -2.2770   -8.8390   -4.6240 C   0  0  0  0  0  0  0  0  0  0  0  0
   -1.2040   -8.3090   -4.0340 N   0  0  0  0  0  0  0  0  0  0  0  0
   -0.8120   -8.8450   -2.8760 C   0  0  0  0  0  0  0  0  0  0  0  0
   -4.2580  -10.3640   -4.7700 C   0  0  0  0  0  0  0  0  0  0  0  0
   -4.5400  -11.6800   -5.2040 C   0  0  0  0  0  0  0  0  0  0  0  0
   -3.6230  -12.8380   -4.9380 C   0  0  0  0  0  0  0  0  0  0  0  0
   -5.6570  -11.9630   -5.8820 N   0  0  0  0  0  0  0  0  0  0  0  0
   -6.4880  -10.9440   -6.1190 C   0  0  0  0  0  0  0  0  0  0  0  0
   -6.3400   -9.6760   -5.7510 N   0  0  0  0  0  0  0  0  0  0  0  0
   -5.2230   -9.4090   -5.0760 C   0  0  0  0  0  0  0  0  0  0  0  0
   -2.7480  -11.3180   -0.0500 O   0  0  0  0  0  0  0  0  0  0  0  0
   -1.5870  -10.9190    0.0100 C   0  0  0  0  0  0  0  0  0  0  0  0
   -0.7980  -11.0980    1.2870 C   0  0  0  0  0  0  0  0  0  0  0  0
   -1.1980  -12.2850    1.9720 O   0  0  0  0  0  0  0  0  0  0  0  0
   -0.6470  -13.4870    1.5950 C   0  0  0  0  0  0  0  0  0  0  0  0
    0.4800  -13.6140    0.7890 C   0  0  0  0  0  0  0  0  0  0  0  0
    0.9640  -14.8770    0.4940 C   0  0  0  0  0  0  0  0  0  0  0  0
    0.3380  -15.9960    1.0010 C   0  0  0  0  0  0  0  0  0  0  0  0
   -0.7820  -15.8620    1.8030 C   0  0  0  0  0  0  0  0  0  0  0  0
   -1.3030  -14.6080    2.1120 C   0  0  0  0  0  0  0  0  0  0  0  0
   -2.5520  -14.4710    2.9460 C   0  0  0  0  0  0  0  0  0  0  0  0
   -0.9330  -10.2910   -0.9950 N   0  0  0  0  0  0  0  0  0  0  0  0
   -1.4350   -9.8570   -2.2460 C   0  0  0  0  0  0  0  0  0  0  0  0
   -2.5000  -10.4840   -2.8850 C   0  0  0  0  0  0  0  0  0  0  0  0
   -2.9180  -10.0280   -4.1360 C   0  0  0  0  0  0  0  0  0  0  0  0
   -2.2320   -8.9470   -4.6840 C   0  0  0  0  0  0  0  0  0  0  0  0
   -1.2160   -8.3230   -4.0860 N   0  0  0  0  0  0  0  0  0  0  0  0
   -0.8340   -8.7780   -2.8900 C   0  0  0  0  0  0  0  0  0  0  0  0
   -4.0120  -10.7190   -4.8700 C   0  0  0  0  0  0  0  0  0  0  0  0
   -5.2200  -10.1220   -5.2950 C   0  0  0  0  0  0  0  0  0  0  0  0
   -5.5800   -8.7040   -4.9620 C   0  0  0  0  0  0  0  0  0  0  0  0
   -6.1230  -10.8090   -6.0050 N   0  0  0  0  0  0  0  0  0  0  0  0
   -5.8280  -12.0820   -6.2760 C   0  0  0  0  0  0  0  0  0  0  0  0
   -4.7380  -12.7560   -5.9200 N   0  0  0  0  0  0  0  0  0  0  0  0
   -3.8450  -12.0560   -5.2190 C   0  0  0  0  0  0  0  0  0  0  0  0
 11 10  1  0
 10  9  1  0
  9  8  2  0
  8  7  1  0
  7  6  2  0
  6  5  1  0
 10  5  2  0
  5  4  1  0
  4  3  1  0
  3  2  1  0
  2  1  2  0
 12  2  1  0
 13 12  1  0
 13 18  2  0
 18 17  1  0
 17 16  2  0
 16 15  1  0
 19 15  1  0
 19 25  2  0
 25 24  1  0
 24 23  2  0
 23 22  1  0
 22 20  2  0
 20 19  1  0
 21 20  1  0
 15 14  2  0
 14 13  1  0
 36 35  1  0
 35 34  1  0
 34 33  2  0
 33 32  1  0
 32 31  2  0
 31 30  1  0
 35 30  2  0
 30 29  1  0
 29 28  1  0
 28 27  1  0
 27 26  2  0
 37 27  1  0
 38 37  1  0
 38 43  2  0
 43 42  1  0
 42 41  2  0
 41 40  1  0
 44 40  1  0
 44 50  2  0
 50 49  1  0
 49 48  2  0
 48 47  1  0
 47 45  2  0
 45 44  1  0
 46 45  1  0
 40 39  2  0
 39 38  1  0
M  END
