SARS2_Nprot-A0438_A_405_1_SARS2_Nprot-A0240+A+504+1_LIG
     RDKit          3D

 22 25  0  0  0  0  0  0  0  0999 V2000
   -5.5710  -10.8610   -5.3750 C   0  0  0  0  0  0  0  0  0  0  0  0
   -5.9070   -9.6630   -5.9770 C   0  0  0  0  0  0  0  0  0  0  0  0
   -4.4840  -10.9360   -4.5210 C   0  0  0  0  0  0  0  0  0  0  0  0
   -3.7300   -9.7970   -4.2680 C   0  0  0  0  0  0  0  0  0  0  0  0
   -4.0570   -8.5940   -4.8830 C   0  0  0  0  0  0  0  0  0  0  0  0
   -5.1500   -8.5340   -5.7300 C   0  0  0  0  0  0  0  0  0  0  0  0
   -2.6600   -9.8480   -3.3230 N   0  0  0  0  0  0  0  0  0  0  0  0
   -1.8700   -8.7570   -3.1180 N   0  0  0  0  0  0  0  0  0  0  0  0
   -1.0260   -9.1390   -2.1690 C   0  0  0  0  0  0  0  0  0  0  0  0
   -1.2470  -10.4640   -1.7560 C   0  0  0  0  0  0  0  0  0  0  0  0
   -2.3060  -10.8830   -2.5320 C   0  0  0  0  0  0  0  0  0  0  0  0
   -0.5410  -11.3170   -0.7550 C   0  0  0  0  0  0  0  0  0  0  0  0
   -0.3510  -10.6900    0.5550 N   0  0  0  0  0  0  0  0  0  0  0  0
   -1.5230  -10.8150    1.4310 C   0  0  0  0  0  0  0  0  0  0  0  0
   -1.4160  -11.8960    2.5120 C   0  0  1  0  0  0  0  0  0  0  0  0
   -2.4700  -11.7100    3.5270 N   0  0  0  0  0  0  0  0  0  0  0  0
   -3.0540  -10.7350    4.3020 C   0  0  0  0  0  0  0  0  0  0  0  0
   -3.9960  -11.3640    5.0460 C   0  0  0  0  0  0  0  0  0  0  0  0
   -4.0220  -12.7110    4.7570 N   0  0  0  0  0  0  0  0  0  0  0  0
   -3.0910  -12.8800    3.8370 C   0  0  0  0  0  0  0  0  0  0  0  0
   -2.5460  -14.0240    3.0480 C   0  0  0  0  0  0  0  0  0  0  0  0
   -1.7110  -13.3130    1.9730 C   0  0  0  0  0  0  0  0  0  0  0  0
  2  6  2  0
  6  5  1  0
  5  4  2  0
  7  4  1  0
  7 11  1  0
 11 10  2  0
 12 10  1  0
 13 12  1  0
 14 13  1  0
 15 14  1  6
 15 22  1  0
 22 21  1  0
 21 20  1  0
 20 19  2  0
 19 18  1  0
 18 17  2  0
 17 16  1  0
 20 16  1  0
 16 15  1  0
 10  9  1  0
  9  8  2  0
  8  7  1  0
  4  3  1  0
  3  1  2  0
  2  1  1  0
M  END
