SARS2_Nprot-x1299_A_405_A_1_SARS2_Nprot-A0240+A+504+0+1_LIG
     RDKit          3D

 25 27  0  0  0  0  0  0  0  0999 V2000
   -2.7720  -11.3120   -0.0250 O   0  0  0  0  0  0  0  0  0  0  0  0
   -1.5850  -10.9890   -0.0140 C   0  0  0  0  0  0  0  0  0  0  0  0
   -0.7760  -11.1430    1.2520 C   0  0  0  0  0  0  0  0  0  0  0  0
   -1.1530  -12.3230    1.9620 O   0  0  0  0  0  0  0  0  0  0  0  0
   -0.6010  -13.5250    1.5900 C   0  0  0  0  0  0  0  0  0  0  0  0
    0.5360  -13.6540    0.7990 C   0  0  0  0  0  0  0  0  0  0  0  0
    1.0180  -14.9190    0.5060 C   0  0  0  0  0  0  0  0  0  0  0  0
    0.3780  -16.0370    0.9980 C   0  0  0  0  0  0  0  0  0  0  0  0
   -0.7520  -15.9000    1.7850 C   0  0  0  0  0  0  0  0  0  0  0  0
   -1.2690  -14.6450    2.0950 C   0  0  0  0  0  0  0  0  0  0  0  0
   -2.5200  -14.5040    2.9250 C   0  0  0  0  0  0  0  0  0  0  0  0
   -0.9240  -10.4540   -1.0660 N   0  0  0  0  0  0  0  0  0  0  0  0
   -1.4510   -9.9220   -2.2680 C   0  0  0  0  0  0  0  0  0  0  0  0
   -2.5740  -10.4510   -2.8980 C   0  0  0  0  0  0  0  0  0  0  0  0
   -3.0090   -9.9000   -4.1030 C   0  0  0  0  0  0  0  0  0  0  0  0
   -2.2770   -8.8390   -4.6240 C   0  0  0  0  0  0  0  0  0  0  0  0
   -1.2040   -8.3090   -4.0340 N   0  0  0  0  0  0  0  0  0  0  0  0
   -0.8120   -8.8450   -2.8760 C   0  0  0  0  0  0  0  0  0  0  0  0
   -4.2580  -10.3640   -4.7700 C   0  0  0  0  0  0  0  0  0  0  0  0
   -4.5400  -11.6800   -5.2040 C   0  0  0  0  0  0  0  0  0  0  0  0
   -3.6230  -12.8380   -4.9380 C   0  0  0  0  0  0  0  0  0  0  0  0
   -5.6570  -11.9630   -5.8820 N   0  0  0  0  0  0  0  0  0  0  0  0
   -6.4880  -10.9440   -6.1190 C   0  0  0  0  0  0  0  0  0  0  0  0
   -6.3400   -9.6760   -5.7510 N   0  0  0  0  0  0  0  0  0  0  0  0
   -5.2230   -9.4090   -5.0760 C   0  0  0  0  0  0  0  0  0  0  0  0
 11 10  1  0
 10  9  1  0
  9  8  2  0
  8  7  1  0
  7  6  2  0
  6  5  1  0
 10  5  2  0
  5  4  1  0
  4  3  1  0
  3  2  1  0
  2  1  2  0
 12  2  1  0
 13 12  1  0
 13 18  2  0
 18 17  1  0
 17 16  2  0
 16 15  1  0
 19 15  1  0
 19 25  2  0
 25 24  1  0
 24 23  2  0
 23 22  1  0
 22 20  2  0
 20 19  1  0
 21 20  1  0
 15 14  2  0
 14 13  1  0
M  END
