SARS2_Nprot-x1491_A_504_0_1_SARS2_Nprot-A0240+A+504+0+1_LIG
     RDKit          3D

 25 27  0  0  0  0  0  0  0  0999 V2000
    0.1270  -14.9180   -0.4730 O   0  0  0  0  0  0  0  0  0  0  0  0
    0.0500  -13.7150   -0.2580 C   0  0  0  0  0  0  0  0  0  0  0  0
    0.2220  -13.1950    1.1450 C   0  0  0  0  0  0  0  0  0  0  0  0
   -0.8580  -12.3340    1.4500 O   0  0  0  0  0  0  0  0  0  0  0  0
   -1.8520  -12.8730    2.2170 C   0  0  0  0  0  0  0  0  0  0  0  0
   -2.3860  -12.0140    3.1770 C   0  0  0  0  0  0  0  0  0  0  0  0
   -1.8450  -10.6210    3.3630 C   0  0  0  0  0  0  0  0  0  0  0  0
   -3.4170  -12.5050    3.9750 C   0  0  0  0  0  0  0  0  0  0  0  0
   -3.8890  -13.7980    3.8210 C   0  0  0  0  0  0  0  0  0  0  0  0
   -3.3410  -14.6270    2.8670 C   0  0  0  0  0  0  0  0  0  0  0  0
   -2.3150  -14.1710    2.0550 C   0  0  0  0  0  0  0  0  0  0  0  0
   -0.2780  -12.8040   -1.1920 N   0  0  0  0  0  0  0  0  0  0  0  0
   -1.3370  -12.8980   -2.1130 C   0  0  0  0  0  0  0  0  0  0  0  0
   -1.7040  -14.1560   -2.5690 C   0  0  0  0  0  0  0  0  0  0  0  0
   -2.7000  -14.3670   -3.4280 N   0  0  0  0  0  0  0  0  0  0  0  0
   -3.3660  -13.3020   -3.8800 C   0  0  0  0  0  0  0  0  0  0  0  0
   -2.0360  -11.8040   -2.6030 C   0  0  0  0  0  0  0  0  0  0  0  0
   -3.0690  -11.9960   -3.5130 C   0  0  0  0  0  0  0  0  0  0  0  0
   -3.8100  -10.8460   -4.0650 C   0  0  0  0  0  0  0  0  0  0  0  0
   -5.1540  -10.7290   -4.2960 C   0  0  0  0  0  0  0  0  0  0  0  0
   -3.2430   -9.7000   -4.5230 N   0  0  0  0  0  0  0  0  0  0  0  0
   -1.8340   -9.3350   -4.5920 C   0  0  0  0  0  0  0  0  0  0  0  0
   -4.1730   -8.8440   -5.0280 N   0  0  0  0  0  0  0  0  0  0  0  0
   -5.3290   -9.4800   -4.8990 C   0  0  0  0  0  0  0  0  0  0  0  0
   -6.5840   -8.8840   -5.4590 C   0  0  0  0  0  0  0  0  0  0  0  0
 25 24  1  0
 24 20  1  0
 20 19  2  0
 19 18  1  0
 18 16  2  0
 16 15  1  0
 15 14  2  0
 14 13  1  0
 13 12  1  0
 12  2  1  0
  2  1  2  0
  3  2  1  0
  4  3  1  0
  5  4  1  0
  5 11  2  0
 11 10  1  0
 10  9  2  0
  9  8  1  0
  8  6  2  0
  6  5  1  0
  7  6  1  0
 17 13  2  0
 18 17  1  0
 21 19  1  0
 22 21  1  0
 23 21  1  0
 24 23  2  0
M  END
