SARS2_Nprot-A0383_A_505_1_SARS2_Nprot-A0240+A+504+1_LIG
     RDKit          3D

 27 29  0  0  0  0  0  0  0  0999 V2000
   -2.0410  -14.3860   -2.6570 O   0  0  0  0  0  0  0  0  0  0  0  0
   -2.1820  -13.1620   -2.6720 C   0  0  0  0  0  0  0  0  0  0  0  0
   -3.0670  -12.5210   -3.7190 C   0  0  0  0  0  0  0  0  0  0  0  0
   -2.8290  -11.1130   -3.7710 O   0  0  0  0  0  0  0  0  0  0  0  0
   -3.7660  -10.2940   -4.3530 C   0  0  0  0  0  0  0  0  0  0  0  0
   -5.0710  -10.6780   -4.6370 C   0  0  0  0  0  0  0  0  0  0  0  0
   -5.9600   -9.7410   -5.1370 C   0  0  0  0  0  0  0  0  0  0  0  0
   -5.5500   -8.4420   -5.3540 C   0  0  0  0  0  0  0  0  0  0  0  0
   -4.2450   -8.0720   -5.0860 C   0  0  0  0  0  0  0  0  0  0  0  0
   -3.3230   -8.9880   -4.5850 C   0  0  0  0  0  0  0  0  0  0  0  0
   -1.8980   -8.5800   -4.3040 C   0  0  0  0  0  0  0  0  0  0  0  0
   -1.6030  -12.3400   -1.7920 N   0  0  0  0  0  0  0  0  0  0  0  0
   -0.6100  -12.8050   -0.8450 C   0  0  0  0  0  0  0  0  0  0  0  0
   -1.2220  -13.1180    0.4800 C   0  0  0  0  0  0  0  0  0  0  0  0
   -1.7650  -14.3390    0.7630 N   0  0  0  0  0  0  0  0  0  0  0  0
   -2.2510  -14.1600    1.9870 C   0  0  0  0  0  0  0  0  0  0  0  0
   -1.9980  -12.9200    2.4140 N   0  0  0  0  0  0  0  0  0  0  0  0
   -1.3270  -12.2270    1.4470 N   0  0  0  0  0  0  0  0  0  0  0  0
   -2.9970  -15.1210    2.7790 C   0  0  0  0  0  0  0  0  0  0  0  0
   -3.3650  -16.4100    2.5580 C   0  0  0  0  0  0  0  0  0  0  0  0
   -4.1000  -16.8190    3.7090 C   0  0  0  0  0  0  0  0  0  0  0  0
   -4.1280  -15.7690    4.5380 C   0  0  0  0  0  0  0  0  0  0  0  0
   -3.4630  -14.7020    4.0040 O   0  0  0  0  0  0  0  0  0  0  0  0
   -3.0760  -17.2580    1.3480 C   0  0  0  0  0  0  0  0  0  0  0  0
   -4.2480  -17.4870    0.4990 N   0  0  0  0  0  0  0  0  0  0  0  0
   -3.9710  -17.0850   -0.8770 C   0  0  0  0  0  0  0  0  0  0  0  0
   -4.6420  -18.8930    0.5360 C   0  0  0  0  0  0  0  0  0  0  0  0
 11 10  1  0
 10  9  1  0
  9  8  2  0
  8  7  1  0
  7  6  2  0
  6  5  1  0
 10  5  2  0
  5  4  1  0
  4  3  1  0
  3  2  1  0
  2  1  2  0
 12  2  1  0
 13 12  1  0
 14 13  1  0
 14 18  2  0
 18 17  1  0
 17 16  1  0
 19 16  1  0
 19 23  1  0
 23 22  1  0
 22 21  2  0
 21 20  1  0
 20 19  2  0
 24 20  1  0
 25 24  1  0
 27 25  1  0
 26 25  1  0
 16 15  2  0
 15 14  1  0
M  END
