SARS2_Nprot-x1124_A_504_1_SARS2_Nprot-A0240+A+504+1_LIG
     RDKit          3D

 26 28  0  0  0  0  0  0  0  0999 V2000
   -2.9580   -9.8960   -6.8790 O   0  0  0  0  0  0  0  0  0  0  0  0
   -3.7720  -10.1590   -5.7330 S   0  0  0  0  0  0  0  0  0  0  0  0
   -4.5680  -11.3440   -5.6840 O   0  0  0  0  0  0  0  0  0  0  0  0
   -4.7970   -8.9010   -5.5870 N   0  0  0  0  0  0  0  0  0  0  0  0
   -4.8200   -7.6810   -6.4230 C   0  0  0  0  0  0  0  0  0  0  0  0
   -5.7960   -7.7750   -7.5730 C   0  0  0  0  0  0  0  0  0  0  0  0
   -6.8800   -6.8780   -7.3990 O   0  0  0  0  0  0  0  0  0  0  0  0
   -5.7930   -8.9820   -4.5130 C   0  0  0  0  0  0  0  0  0  0  0  0
   -2.7310  -10.1490   -4.3150 C   0  0  0  0  0  0  0  0  0  0  0  0
   -2.8460  -11.1610   -3.3770 C   0  0  0  0  0  0  0  0  0  0  0  0
   -2.0090  -11.1670   -2.2770 C   0  0  0  0  0  0  0  0  0  0  0  0
   -1.0680  -10.1590   -2.0980 C   0  0  0  0  0  0  0  0  0  0  0  0
   -0.9690   -9.1440   -3.0450 C   0  0  0  0  0  0  0  0  0  0  0  0
   -1.7950   -9.1380   -4.1560 C   0  0  0  0  0  0  0  0  0  0  0  0
   -0.2300  -10.1800   -0.9940 N   0  0  0  0  0  0  0  0  0  0  0  0
   -0.6690  -10.5910    0.3270 C   0  0  0  0  0  0  0  0  0  0  0  0
   -0.5740  -12.0840    0.5560 C   0  0  0  0  0  0  0  0  0  0  0  0
    0.2220  -12.8520   -0.2500 N   0  0  0  0  0  0  0  0  0  0  0  0
    0.1250  -14.1790    0.1380 C   0  0  0  0  0  0  0  0  0  0  0  0
   -0.7600  -14.2450    1.2280 C   0  0  0  0  0  0  0  0  0  0  0  0
   -1.1970  -12.9030    1.4870 C   0  0  0  0  0  0  0  0  0  0  0  0
    0.7210  -15.3200   -0.3880 C   0  0  0  0  0  0  0  0  0  0  0  0
    0.4310  -16.5500    0.1840 C   0  0  0  0  0  0  0  0  0  0  0  0
   -0.4420  -16.6340    1.2700 C   0  0  0  0  0  0  0  0  0  0  0  0
   -0.7210  -17.8530    1.8180 O   0  0  0  0  0  0  0  0  0  0  0  0
   -1.0320  -15.4900    1.7930 C   0  0  0  0  0  0  0  0  0  0  0  0
  8  4  1  0
  5  4  1  0
  6  5  1  0
  7  6  1  0
  4  2  1  0
  3  2  2  0
  2  1  2  0
  9  2  1  0
  9 14  2  0
 14 13  1  0
 13 12  2  0
 15 12  1  0
 16 15  1  0
 17 16  1  0
 17 21  2  0
 21 20  1  0
 20 26  2  0
 26 24  1  0
 25 24  1  0
 24 23  2  0
 23 22  1  0
 22 19  2  0
 20 19  1  0
 19 18  1  0
 18 17  1  0
 12 11  1  0
 11 10  2  0
 10  9  1  0
M  END
