SARS2_Nprot-A0497_A_504_0_1_SARS2_Nprot-A0240+A+504+0+1_LIG
     RDKit          3D

 24 27  0  0  0  0  0  0  0  0999 V2000
   -4.0270  -10.8620    5.4630 Br  0  0  0  0  0  0  0  0  0  0  0  0
   -3.0470  -11.5830    4.0050 C   0  0  0  0  0  0  0  0  0  0  0  0
   -3.1410  -12.9360    3.7430 C   0  0  0  0  0  0  0  0  0  0  0  0
   -2.2600  -10.7360    3.2400 C   0  0  0  0  0  0  0  0  0  0  0  0
   -1.5410  -11.2520    2.1720 C   0  0  0  0  0  0  0  0  0  0  0  0
   -1.6240  -12.6110    1.8960 C   0  0  0  0  0  0  0  0  0  0  0  0
   -2.4180  -13.4650    2.6780 C   0  0  0  0  0  0  0  0  0  0  0  0
   -2.2360  -14.7470    2.0980 C   0  0  0  0  0  0  0  0  0  0  0  0
   -1.4230  -14.7000    1.0650 N   0  0  0  0  0  0  0  0  0  0  0  0
   -1.0510  -13.3870    0.9340 N   0  0  0  0  0  0  0  0  0  0  0  0
   -0.1870  -12.9870   -0.1580 C   0  0  0  0  0  0  0  0  0  0  0  0
   -0.9880  -12.4230   -1.3190 C   0  0  0  0  0  0  0  0  0  0  0  0
   -1.6460  -13.1540   -2.0540 O   0  0  0  0  0  0  0  0  0  0  0  0
   -0.9120  -11.0820   -1.4560 N   0  0  0  0  0  0  0  0  0  0  0  0
   -1.6690  -10.2600   -2.3230 C   0  0  0  0  0  0  0  0  0  0  0  0
   -2.9210  -10.6250   -2.7670 C   0  0  0  0  0  0  0  0  0  0  0  0
   -3.6700   -9.7610   -3.5980 C   0  0  0  0  0  0  0  0  0  0  0  0
   -3.1170   -8.5190   -3.9700 C   0  0  0  0  0  0  0  0  0  0  0  0
   -1.8270   -8.1810   -3.5090 C   0  0  0  0  0  0  0  0  0  0  0  0
   -1.1300   -9.0350   -2.7080 C   0  0  0  0  0  0  0  0  0  0  0  0
   -4.9620  -10.0680   -4.0650 C   0  0  0  0  0  0  0  0  0  0  0  0
   -5.6330   -9.1730   -4.8420 C   0  0  0  0  0  0  0  0  0  0  0  0
   -5.0150   -7.9730   -5.1590 C   0  0  0  0  0  0  0  0  0  0  0  0
   -3.8020   -7.6270   -4.7570 N   0  0  0  0  0  0  0  0  0  0  0  0
 13 12  2  0
 12 11  1  0
 11 10  1  0
 10  9  1  0
  9  8  2  0
  8  7  1  0
  7  3  1  0
  3  2  2  0
  2  1  1  0
  4  2  1  0
  5  4  2  0
  6  5  1  0
  7  6  2  0
 10  6  1  0
 14 12  1  0
 15 14  1  0
 15 20  2  0
 20 19  1  0
 19 18  2  0
 18 24  1  0
 24 23  2  0
 23 22  1  0
 22 21  2  0
 21 17  1  0
 18 17  1  0
 17 16  2  0
 16 15  1  0
M  END
