SARS2_Nprot-x1882_A_501_A_1_SARS2_Nprot-A0240+A+504+0+1_ALIG
     RDKit          3D

 23 26  0  0  0  0  0  0  0  0999 V2000
   -5.6530   -8.4000   -5.7170 C   0  0  0  0  0  0  0  0  0  0  0  0
   -6.2920   -9.5640   -6.0980 C   0  0  0  0  0  0  0  0  0  0  0  0
   -4.5310   -8.4480   -4.9070 C   0  0  0  0  0  0  0  0  0  0  0  0
   -4.0520   -9.6780   -4.4740 C   0  0  0  0  0  0  0  0  0  0  0  0
   -4.6860  -10.8510   -4.8600 C   0  0  0  0  0  0  0  0  0  0  0  0
   -5.8070  -10.7870   -5.6710 C   0  0  0  0  0  0  0  0  0  0  0  0
   -2.9250   -9.7340   -3.6000 N   0  0  0  0  0  0  0  0  0  0  0  0
   -1.9480   -8.7880   -3.6860 N   0  0  0  0  0  0  0  0  0  0  0  0
   -1.0830   -9.1260   -2.7400 C   0  0  0  0  0  0  0  0  0  0  0  0
   -1.4770  -10.2770   -2.0380 C   0  0  0  0  0  0  0  0  0  0  0  0
   -2.6700  -10.6380   -2.6300 C   0  0  0  0  0  0  0  0  0  0  0  0
   -0.8330  -10.9790   -0.9070 C   0  0  0  0  0  0  0  0  0  0  0  0
   -1.2670  -10.3250    0.3240 N   0  0  0  0  0  0  0  0  0  0  0  0
   -0.6290  -10.8940    1.5140 C   0  0  0  0  0  0  0  0  0  0  0  0
   -1.5710  -11.7430    2.3320 C   0  0  0  0  0  0  0  0  0  0  0  0
   -1.6180  -13.1230    2.1410 C   0  0  0  0  0  0  0  0  0  0  0  0
   -2.5040  -13.8580    2.8990 C   0  0  0  0  0  0  0  0  0  0  0  0
   -2.6660  -15.2190    2.8240 O   0  0  0  0  0  0  0  0  0  0  0  0
   -3.6500  -15.5040    3.7530 C   0  0  0  0  0  0  0  0  0  0  0  0
   -4.0880  -14.4100    4.3810 C   0  0  0  0  0  0  0  0  0  0  0  0
   -3.3520  -13.3020    3.8400 C   0  0  0  0  0  0  0  0  0  0  0  0
   -3.2980  -11.9200    4.0280 C   0  0  0  0  0  0  0  0  0  0  0  0
   -2.4160  -11.1570    3.2810 C   0  0  0  0  0  0  0  0  0  0  0  0
  2  6  2  0
  6  5  1  0
  5  4  2  0
  7  4  1  0
  7 11  1  0
 11 10  2  0
 12 10  1  0
 13 12  1  0
 14 13  1  0
 15 14  1  0
 15 23  2  0
 23 22  1  0
 22 21  2  0
 21 20  1  0
 20 19  2  0
 19 18  1  0
 18 17  1  0
 21 17  1  0
 17 16  2  0
 16 15  1  0
 10  9  1  0
  9  8  2  0
  8  7  1  0
  4  3  1  0
  3  1  2  0
  2  1  1  0
M  END
$$$$
