SARS2_Nprot-x1585_A_405_1_SARS2_Nprot-x1396+A+504+1_LIG
     RDKit          3D

 28 31  0  0  0  0  0  0  0  0999 V2000
   19.1620    2.6370   12.3700 O   0  0  0  0  0  0  0  0  0  0  0  0
   19.9170    3.7160   11.7940 S   0  0  0  0  0  0  0  0  0  0  0  0
   19.2040    4.8330   11.2370 O   0  0  0  0  0  0  0  0  0  0  0  0
   20.9620    3.0550   10.5370 C   0  0  0  0  0  0  0  0  0  0  0  0
   21.0530    3.7060    9.3190 C   0  0  0  0  0  0  0  0  0  0  0  0
   21.8150    3.1380    8.3130 C   0  0  0  0  0  0  0  0  0  0  0  0
   22.4620    1.9390    8.5180 C   0  0  0  0  0  0  0  0  0  0  0  0
   22.3800    1.3130    9.7430 C   0  0  0  0  0  0  0  0  0  0  0  0
   21.6360    1.8680   10.7670 C   0  0  0  0  0  0  0  0  0  0  0  0
   21.0660    4.3200   13.0240 C   0  0  2  0  0  0  0  0  0  0  0  0
   20.3500    5.0240   14.1770 C   0  0  0  0  0  0  0  0  0  0  0  0
   21.3540    5.5630   15.2090 C   0  0  0  0  0  0  0  0  0  0  0  0
   22.4160    6.4640   14.5700 C   0  0  2  0  0  0  0  0  0  0  0  0
   23.1120    5.7560   13.4110 C   0  0  0  0  0  0  0  0  0  0  0  0
   22.1140    5.2260   12.3750 C   0  0  0  0  0  0  0  0  0  0  0  0
   23.3910    7.2520   15.3560 N   0  0  0  0  0  0  0  0  0  0  0  0
   23.8550    8.4490   14.6670 C   0  0  0  0  0  0  0  0  0  0  0  0
   25.1420    8.9140   15.2490 C   0  0  0  0  0  0  0  0  0  0  0  0
   26.2850    9.2250   14.5370 C   0  0  0  0  0  0  0  0  0  0  0  0
   27.2060    9.6510   15.4280 N   0  0  0  0  0  0  0  0  0  0  0  0
   26.7290    9.6310   16.7050 N   0  0  0  0  0  0  0  0  0  0  0  0
   25.4880    9.1830   16.5830 C   0  0  0  0  0  0  0  0  0  0  0  0
   28.5320   10.1140   15.1710 C   0  0  0  0  0  0  0  0  0  0  0  0
   28.7330   11.3900   14.6610 C   0  0  0  0  0  0  0  0  0  0  0  0
   30.0220   11.8330   14.4170 C   0  0  0  0  0  0  0  0  0  0  0  0
   31.1060   11.0130   14.6770 C   0  0  0  0  0  0  0  0  0  0  0  0
   30.9010    9.7410   15.1840 C   0  0  0  0  0  0  0  0  0  0  0  0
   29.6180    9.2860   15.4340 C   0  0  0  0  0  0  0  0  0  0  0  0
  3  2  2  0
  2  1  2  0
  4  2  1  0
  4  9  2  0
  9  8  1  0
  8  7  2  0
  7  6  1  0
  6  5  2  0
  5  4  1  0
 10  2  1  6
 10 15  1  0
 15 14  1  0
 14 13  1  0
 13 16  1  1
 17 16  1  0
 18 17  1  0
 18 22  1  0
 22 21  2  0
 21 20  1  0
 23 20  1  0
 23 28  2  0
 28 27  1  0
 27 26  2  0
 26 25  1  0
 25 24  2  0
 24 23  1  0
 20 19  1  0
 19 18  2  0
 13 12  1  0
 12 11  1  0
 11 10  1  0
M  END
