SARS2_Nprot-x1574_A_507_A_1_SARS2_Nprot-A0240+A+504+0+1_ALIG
     RDKit          3D

 26 28  0  0  0  0  0  0  0  0999 V2000
   -2.2200  -12.2500   -2.9630 O   0  0  0  0  0  0  0  0  0  0  0  0
   -1.4570  -11.8140   -2.1090 C   0  0  0  0  0  0  0  0  0  0  0  0
   -0.6140  -12.7780   -1.3060 C   0  0  0  0  0  0  0  0  0  0  0  0
   -1.4690  -13.5630   -0.4900 O   0  0  0  0  0  0  0  0  0  0  0  0
   -0.9420  -14.6050    0.2250 C   0  0  0  0  0  0  0  0  0  0  0  0
   -0.4740  -15.7770   -0.3540 C   0  0  0  0  0  0  0  0  0  0  0  0
   -0.1170  -16.8380    0.4630 C   0  0  0  0  0  0  0  0  0  0  0  0
   -0.2120  -16.7210    1.8340 C   0  0  0  0  0  0  0  0  0  0  0  0
   -0.6620  -15.5410    2.4000 C   0  0  0  0  0  0  0  0  0  0  0  0
   -1.0400  -14.4590    1.6070 C   0  0  0  0  0  0  0  0  0  0  0  0
   -1.5840  -13.1970    2.2180 C   0  0  0  0  0  0  0  0  0  0  0  0
   -1.3140  -10.5010   -1.8230 N   0  0  0  0  0  0  0  0  0  0  0  0
   -1.6480   -9.4250   -2.6660 C   0  0  0  0  0  0  0  0  0  0  0  0
   -2.8080   -9.5050   -3.4230 C   0  0  0  0  0  0  0  0  0  0  0  0
   -3.0770   -8.5310   -4.3800 C   0  0  0  0  0  0  0  0  0  0  0  0
   -2.1420   -7.5130   -4.5320 C   0  0  0  0  0  0  0  0  0  0  0  0
   -1.0270   -7.4070   -3.8070 N   0  0  0  0  0  0  0  0  0  0  0  0
   -0.8000   -8.3450   -2.8850 C   0  0  0  0  0  0  0  0  0  0  0  0
   -4.3290   -8.5710   -5.1710 C   0  0  0  0  0  0  0  0  0  0  0  0
   -4.3450   -8.1670   -6.5060 C   0  0  0  0  0  0  0  0  0  0  0  0
   -5.5060   -8.2190   -7.2700 C   0  0  0  0  0  0  0  0  0  0  0  0
   -5.4920   -7.8090   -8.7130 C   0  0  0  0  0  0  0  0  0  0  0  0
   -5.3680   -6.3590   -8.8130 N   0  0  0  0  0  0  0  0  0  0  0  0
   -6.6720   -8.6720   -6.6730 C   0  0  0  0  0  0  0  0  0  0  0  0
   -6.6780   -9.0720   -5.3490 C   0  0  0  0  0  0  0  0  0  0  0  0
   -5.5140   -9.0240   -4.6030 C   0  0  0  0  0  0  0  0  0  0  0  0
 11 10  1  0
 10  9  1  0
  9  8  2  0
  8  7  1  0
  7  6  2  0
  6  5  1  0
 10  5  2  0
  5  4  1  0
  4  3  1  0
  3  2  1  0
  2  1  2  0
 12  2  1  0
 13 12  1  0
 13 18  2  0
 18 17  1  0
 17 16  2  0
 16 15  1  0
 19 15  1  0
 19 26  2  0
 26 25  1  0
 25 24  2  0
 24 21  1  0
 22 21  1  0
 23 22  1  0
 21 20  2  0
 20 19  1  0
 15 14  2  0
 14 13  1  0
M  END
$$$$
