SARS2_Nprot-x1582_A_504_0_1_SARS2_Nprot-A0240+A+504+0+1_LIG
     RDKit          3D

 29 32  0  0  0  0  0  0  0  0999 V2000
   -1.6380  -14.1820   -1.1790 O   0  0  0  0  0  0  0  0  0  0  0  0
   -1.2490  -13.0710   -0.8340 C   0  0  0  0  0  0  0  0  0  0  0  0
   -0.3350  -12.9100    0.3580 C   0  0  0  0  0  0  0  0  0  0  0  0
   -0.0960  -14.1380    1.0290 O   0  0  0  0  0  0  0  0  0  0  0  0
   -1.1110  -14.6520    1.7900 C   0  0  0  0  0  0  0  0  0  0  0  0
   -2.0000  -13.8840    2.5280 C   0  0  0  0  0  0  0  0  0  0  0  0
   -2.9570  -14.5200    3.3020 C   0  0  0  0  0  0  0  0  0  0  0  0
   -3.0220  -15.8980    3.3340 C   0  0  0  0  0  0  0  0  0  0  0  0
   -2.1320  -16.6510    2.5880 C   0  0  0  0  0  0  0  0  0  0  0  0
   -1.1600  -16.0440    1.7980 C   0  0  0  0  0  0  0  0  0  0  0  0
   -0.1970  -16.8570    0.9740 C   0  0  0  0  0  0  0  0  0  0  0  0
   -1.5510  -11.9230   -1.4660 N   0  0  0  0  0  0  0  0  0  0  0  0
   -2.2670  -11.6970   -2.6610 C   0  0  0  0  0  0  0  0  0  0  0  0
   -2.3500  -10.3760   -3.0800 C   0  0  0  0  0  0  0  0  0  0  0  0
   -3.0170  -10.0650   -4.2630 C   0  0  0  0  0  0  0  0  0  0  0  0
   -3.6040  -11.1170   -4.9570 C   0  0  0  0  0  0  0  0  0  0  0  0
   -3.5450  -12.3910   -4.5700 N   0  0  0  0  0  0  0  0  0  0  0  0
   -2.8830  -12.6660   -3.4440 C   0  0  0  0  0  0  0  0  0  0  0  0
   -3.0110   -8.6800   -4.7920 C   0  0  0  0  0  0  0  0  0  0  0  0
   -1.8800   -7.8790   -4.6730 C   0  0  0  0  0  0  0  0  0  0  0  0
   -1.8550   -6.5970   -5.1890 C   0  0  0  0  0  0  0  0  0  0  0  0
   -2.9620   -6.0660   -5.8390 C   0  0  0  0  0  0  0  0  0  0  0  0
   -4.0970   -6.8590   -5.9490 C   0  0  0  0  0  0  0  0  0  0  0  0
   -4.1220   -8.1430   -5.4350 C   0  0  0  0  0  0  0  0  0  0  0  0
   -2.9210   -4.6540   -6.4080 C   0  0  0  0  0  0  0  0  0  0  0  0
   -2.4070   -4.7380   -7.7670 N   0  0  0  0  0  0  0  0  0  0  0  0
   -2.0930   -3.6290   -5.5840 C   0  0  0  0  0  0  0  0  0  0  0  0
   -3.3540   -2.7880   -5.3940 C   0  0  0  0  0  0  0  0  0  0  0  0
   -4.1900   -3.7830   -6.1990 C   0  0  0  0  0  0  0  0  0  0  0  0
 11 10  1  0
 10  9  1  0
  9  8  2  0
  8  7  1  0
  7  6  2  0
  6  5  1  0
 10  5  2  0
  5  4  1  0
  4  3  1  0
  3  2  1  0
  2  1  2  0
 12  2  1  0
 13 12  1  0
 13 18  2  0
 18 17  1  0
 17 16  2  0
 16 15  1  0
 19 15  1  0
 19 24  2  0
 24 23  1  0
 23 22  2  0
 25 22  1  0
 26 25  1  0
 25 29  1  0
 29 28  1  0
 28 27  1  0
 27 25  1  0
 22 21  1  0
 21 20  2  0
 20 19  1  0
 15 14  2  0
 14 13  1  0
M  END
