SARS2_Nprot-x1305_A_406_1_SARS2_Nprot-A0240+A+504+1__LIG
     RDKit          3D

 27 29  0  0  0  0  0  0  0  0999 V2000
   -2.9810  -11.5800   -0.2140 O   0  0  0  0  0  0  0  0  0  0  0  0
   -1.9610  -10.9240   -0.0120 C   0  0  0  0  0  0  0  0  0  0  0  0
   -1.4400  -10.7450    1.3930 C   0  0  0  0  0  0  0  0  0  0  0  0
   -1.6730  -11.9100    2.1710 O   0  0  0  0  0  0  0  0  0  0  0  0
   -0.9940  -13.0510    1.8360 C   0  0  0  0  0  0  0  0  0  0  0  0
    0.1930  -13.0530    1.1180 C   0  0  0  0  0  0  0  0  0  0  0  0
    0.8360  -14.2540    0.8800 C   0  0  0  0  0  0  0  0  0  0  0  0
    0.3020  -15.4330    1.3540 C   0  0  0  0  0  0  0  0  0  0  0  0
   -0.8860  -15.4230    2.0610 C   0  0  0  0  0  0  0  0  0  0  0  0
   -1.5660  -14.2350    2.3080 C   0  0  0  0  0  0  0  0  0  0  0  0
   -2.8980  -14.2350    3.0130 C   0  0  0  0  0  0  0  0  0  0  0  0
   -1.2160  -10.3430   -0.9760 N   0  0  0  0  0  0  0  0  0  0  0  0
   -1.5900   -9.9590   -2.2820 C   0  0  0  0  0  0  0  0  0  0  0  0
   -2.7440  -10.4150   -2.9120 C   0  0  0  0  0  0  0  0  0  0  0  0
   -3.0050  -10.0310   -4.2260 C   0  0  0  0  0  0  0  0  0  0  0  0
   -2.0790   -9.1990   -4.8480 C   0  0  0  0  0  0  0  0  0  0  0  0
   -0.9750   -8.7390   -4.2590 N   0  0  0  0  0  0  0  0  0  0  0  0
   -0.7480   -9.1150   -3.0000 C   0  0  0  0  0  0  0  0  0  0  0  0
   -4.2430  -10.4800   -4.9270 C   0  0  0  0  0  0  0  0  0  0  0  0
   -5.2690   -9.5800   -5.2190 C   0  0  0  0  0  0  0  0  0  0  0  0
   -5.2660   -8.1750   -4.6960 C   0  0  0  0  0  0  0  0  0  0  0  0
   -6.3310   -9.9280   -5.9630 N   0  0  0  0  0  0  0  0  0  0  0  0
   -6.4250  -11.1900   -6.4420 C   0  0  0  0  0  0  0  0  0  0  0  0
   -7.4930  -11.4650   -7.2120 N   0  0  0  0  0  0  0  0  0  0  0  0
   -5.4540  -12.1470   -6.1610 C   0  0  0  0  0  0  0  0  0  0  0  0
   -4.3510  -11.8000   -5.3910 C   0  0  0  0  0  0  0  0  0  0  0  0
   -3.3200  -12.8450   -5.0480 C   0  0  0  0  0  0  0  0  0  0  0  0
 11 10  1  0
 10  9  1  0
  9  8  2  0
  8  7  1  0
  7  6  2  0
  6  5  1  0
 10  5  2  0
  5  4  1  0
  4  3  1  0
  3  2  1  0
  2  1  2  0
 12  2  1  0
 13 12  1  0
 13 18  2  0
 18 17  1  0
 17 16  2  0
 16 15  1  0
 19 15  1  0
 19 26  2  0
 27 26  1  0
 26 25  1  0
 25 23  2  0
 24 23  1  0
 23 22  1  0
 22 20  2  0
 20 19  1  0
 21 20  1  0
 15 14  2  0
 14 13  1  0
M  END
$$$$
