SARS2_Nprot-x1108_A_405_0_1_SARS2_Nprot-A0240+A+504+0+1_LIG
     RDKit          3D

 23 24  0  0  0  0  0  0  0  0999 V2000
   -2.4250   -9.6830   -6.6870 O   0  0  0  0  0  0  0  0  0  0  0  0
   -3.2520  -10.2790   -5.6900 S   0  0  0  0  0  0  0  0  0  0  0  0
   -3.7400  -11.6060   -5.8710 O   0  0  0  0  0  0  0  0  0  0  0  0
   -4.5520   -9.3190   -5.5290 N   0  0  0  0  0  0  0  0  0  0  0  0
   -5.0840   -8.4450   -6.5930 C   0  0  0  0  0  0  0  0  0  0  0  0
   -4.7970   -6.9890   -6.3220 C   0  0  0  0  0  0  0  0  0  0  0  0
   -5.1550   -6.2130   -7.4480 O   0  0  0  0  0  0  0  0  0  0  0  0
   -5.2520   -9.3330   -4.2410 C   0  0  0  0  0  0  0  0  0  0  0  0
   -2.3860  -10.2490   -4.1600 C   0  0  0  0  0  0  0  0  0  0  0  0
   -1.6310   -9.1390   -3.8200 C   0  0  0  0  0  0  0  0  0  0  0  0
   -0.9540   -9.1230   -2.6130 C   0  0  0  0  0  0  0  0  0  0  0  0
   -2.4780  -11.3340   -3.3050 C   0  0  0  0  0  0  0  0  0  0  0  0
   -1.7970  -11.3100   -2.1010 C   0  0  0  0  0  0  0  0  0  0  0  0
   -1.0260  -10.2090   -1.7480 C   0  0  0  0  0  0  0  0  0  0  0  0
   -0.3580  -10.1900   -0.5450 N   0  0  0  0  0  0  0  0  0  0  0  0
   -0.8640  -10.8370    0.6500 C   0  0  0  0  0  0  0  0  0  0  0  0
   -0.6750  -12.3220    0.5190 C   0  0  0  0  0  0  0  0  0  0  0  0
    0.3650  -12.8430   -0.1060 N   0  0  0  0  0  0  0  0  0  0  0  0
    0.2620  -14.1860   -0.0260 C   0  0  0  0  0  0  0  0  0  0  0  0
   -1.4840  -13.2500    1.0160 N   0  0  0  0  0  0  0  0  0  0  0  0
   -0.8840  -14.4460    0.6580 C   0  0  0  0  0  0  0  0  0  0  0  0
   -1.5160  -15.7610    0.9770 C   0  0  0  0  0  0  0  0  0  0  0  0
   -2.0290  -16.2940   -0.3420 C   0  0  0  0  0  0  0  0  0  0  0  0
 23 22  1  0
 22 21  1  0
 21 19  2  0
 19 18  1  0
 18 17  1  0
 17 16  1  0
 16 15  1  0
 15 14  1  0
 14 11  2  0
 11 10  1  0
 10  9  2  0
  9  2  1  0
  3  2  2  0
  2  1  2  0
  4  2  1  0
  8  4  1  0
  5  4  1  0
  6  5  1  0
  7  6  1  0
 12  9  1  0
 13 12  2  0
 14 13  1  0
 20 17  2  0
 21 20  1  0
M  END
