SARS2_Nprot-A0240_A_504_1_SARS2_Nprot-A0240+A+504+1_LIG
     RDKit          3D

 25 27  0  0  0  0  0  0  0  0999 V2000
   -2.6520  -10.0360   -5.6870 O   0  0  0  0  0  0  0  0  0  0  0  0
   -3.3410  -11.0910   -5.0130 S   0  0  0  0  0  0  0  0  0  0  0  0
   -3.5500  -12.3400   -5.6780 O   0  0  0  0  0  0  0  0  0  0  0  0
   -4.8160  -10.5160   -4.6250 N   0  0  0  0  0  0  0  0  0  0  0  0
   -5.1690   -9.0940   -4.4110 C   0  0  0  0  0  0  0  0  0  0  0  0
   -6.3630   -8.6210   -5.2080 C   0  0  0  0  0  0  0  0  0  0  0  0
   -6.1650   -8.8380   -6.5940 O   0  0  0  0  0  0  0  0  0  0  0  0
   -5.8810  -11.5120   -4.4700 C   0  0  0  0  0  0  0  0  0  0  0  0
   -2.4910  -11.4170   -3.5070 C   0  0  0  0  0  0  0  0  0  0  0  0
   -2.2820  -12.7290   -3.1100 C   0  0  0  0  0  0  0  0  0  0  0  0
   -1.5150  -12.9850   -1.9860 C   0  0  0  0  0  0  0  0  0  0  0  0
   -0.9790  -11.9390   -1.2420 C   0  0  0  0  0  0  0  0  0  0  0  0
   -1.2150  -10.6280   -1.6430 C   0  0  0  0  0  0  0  0  0  0  0  0
   -1.9680  -10.3630   -2.7740 C   0  0  0  0  0  0  0  0  0  0  0  0
   -0.2100  -12.1850   -0.1140 N   0  0  0  0  0  0  0  0  0  0  0  0
    0.1140  -13.5140    0.3700 C   0  0  0  0  0  0  0  0  0  0  0  0
   -0.9830  -14.1140    1.1930 C   0  0  0  0  0  0  0  0  0  0  0  0
   -1.8790  -13.1510    2.3350 S   0  0  0  0  0  0  0  0  0  0  0  0
   -2.8550  -14.5210    2.7790 C   0  0  0  0  0  0  0  0  0  0  0  0
   -2.4920  -15.6670    2.0660 C   0  0  0  0  0  0  0  0  0  0  0  0
   -1.4150  -15.3980    1.1680 C   0  0  0  0  0  0  0  0  0  0  0  0
   -3.8240  -14.4510    3.6930 N   0  0  0  0  0  0  0  0  0  0  0  0
   -4.4950  -15.5900    3.9310 C   0  0  0  0  0  0  0  0  0  0  0  0
   -4.2290  -16.7890    3.2890 C   0  0  0  0  0  0  0  0  0  0  0  0
   -3.2160  -16.8290    2.3450 C   0  0  0  0  0  0  0  0  0  0  0  0
  8  4  1  0
  5  4  1  0
  6  5  1  0
  7  6  1  0
  4  2  1  0
  3  2  2  0
  2  1  2  0
  9  2  1  0
  9 14  2  0
 14 13  1  0
 13 12  2  0
 15 12  1  0
 16 15  1  0
 17 16  1  0
 17 21  2  0
 21 20  1  0
 20 25  2  0
 25 24  1  0
 24 23  2  0
 23 22  1  0
 22 19  2  0
 20 19  1  0
 19 18  1  0
 18 17  1  0
 12 11  1  0
 11 10  2  0
 10  9  1  0
M  END
