SARS2_Nprot-x1574_A_507_1_SARS2_Nprot-A0240+A+504+1_ALIG
     RDKit          3D

 26 28  0  0  0  0  0  0  0  0999 V2000
   -2.2200  -12.2500   -2.9630 O   0  0  0  0  0  0  0  0  0  0  0  0
   -1.4570  -11.8140   -2.1090 C   0  0  0  0  0  0  0  0  0  0  0  0
   -0.6140  -12.7780   -1.3060 C   0  0  0  0  0  0  0  0  0  0  0  0
   -1.4690  -13.5630   -0.4900 O   0  0  0  0  0  0  0  0  0  0  0  0
   -0.9420  -14.6050    0.2250 C   0  0  0  0  0  0  0  0  0  0  0  0
   -0.4740  -15.7770   -0.3540 C   0  0  0  0  0  0  0  0  0  0  0  0
   -0.1170  -16.8380    0.4630 C   0  0  0  0  0  0  0  0  0  0  0  0
   -0.2120  -16.7210    1.8340 C   0  0  0  0  0  0  0  0  0  0  0  0
   -0.6620  -15.5410    2.4000 C   0  0  0  0  0  0  0  0  0  0  0  0
   -1.0400  -14.4590    1.6070 C   0  0  0  0  0  0  0  0  0  0  0  0
   -1.5840  -13.1970    2.2180 C   0  0  0  0  0  0  0  0  0  0  0  0
   -1.3140  -10.5010   -1.8230 N   0  0  0  0  0  0  0  0  0  0  0  0
   -1.6480   -9.4250   -2.6660 C   0  0  0  0  0  0  0  0  0  0  0  0
   -2.8080   -9.5050   -3.4230 C   0  0  0  0  0  0  0  0  0  0  0  0
   -3.0770   -8.5310   -4.3800 C   0  0  0  0  0  0  0  0  0  0  0  0
   -2.1420   -7.5130   -4.5320 C   0  0  0  0  0  0  0  0  0  0  0  0
   -1.0270   -7.4070   -3.8070 N   0  0  0  0  0  0  0  0  0  0  0  0
   -0.8000   -8.3450   -2.8850 C   0  0  0  0  0  0  0  0  0  0  0  0
   -4.3290   -8.5710   -5.1710 C   0  0  0  0  0  0  0  0  0  0  0  0
   -4.3450   -8.1670   -6.5060 C   0  0  0  0  0  0  0  0  0  0  0  0
   -5.5060   -8.2190   -7.2700 C   0  0  0  0  0  0  0  0  0  0  0  0
   -5.4920   -7.8090   -8.7130 C   0  0  0  0  0  0  0  0  0  0  0  0
   -5.3680   -6.3590   -8.8130 N   0  0  0  0  0  0  0  0  0  0  0  0
   -6.6720   -8.6720   -6.6730 C   0  0  0  0  0  0  0  0  0  0  0  0
   -6.6780   -9.0720   -5.3490 C   0  0  0  0  0  0  0  0  0  0  0  0
   -5.5140   -9.0240   -4.6030 C   0  0  0  0  0  0  0  0  0  0  0  0
 11 10  1  0
 10  9  1  0
  9  8  2  0
  8  7  1  0
  7  6  2  0
  6  5  1  0
 10  5  2  0
  5  4  1  0
  4  3  1  0
  3  2  1  0
  2  1  2  0
 12  2  1  0
 13 12  1  0
 13 18  2  0
 18 17  1  0
 17 16  2  0
 16 15  1  0
 19 15  1  0
 19 26  2  0
 26 25  1  0
 25 24  2  0
 24 21  1  0
 22 21  1  0
 23 22  1  0
 21 20  2  0
 20 19  1  0
 15 14  2  0
 14 13  1  0
M  END
$$$$
SARS2_Nprot-x1574_A_507_1_SARS2_Nprot-A0240+A+504+1_BLIG
     RDKit          3D

 26 28  0  0  0  0  0  0  0  0999 V2000
   -2.1190  -12.5420   -2.6460 O   0  0  0  0  0  0  0  0  0  0  0  0
   -1.3470  -11.9990   -1.8650 C   0  0  0  0  0  0  0  0  0  0  0  0
   -0.3900  -12.8330   -1.0380 C   0  0  0  0  0  0  0  0  0  0  0  0
   -0.9250  -14.0930   -0.6270 O   0  0  0  0  0  0  0  0  0  0  0  0
   -1.2770  -14.2290    0.6900 C   0  0  0  0  0  0  0  0  0  0  0  0
   -1.8170  -13.1750    1.4110 C   0  0  0  0  0  0  0  0  0  0  0  0
   -2.2890  -13.4000    2.6920 C   0  0  0  0  0  0  0  0  0  0  0  0
   -2.2080  -14.6580    3.2510 C   0  0  0  0  0  0  0  0  0  0  0  0
   -1.6390  -15.6980    2.5390 C   0  0  0  0  0  0  0  0  0  0  0  0
   -1.1590  -15.5110    1.2450 C   0  0  0  0  0  0  0  0  0  0  0  0
   -0.5440  -16.6600    0.4830 C   0  0  0  0  0  0  0  0  0  0  0  0
   -1.2610  -10.6600   -1.6840 N   0  0  0  0  0  0  0  0  0  0  0  0
   -1.6090   -9.6290   -2.5750 C   0  0  0  0  0  0  0  0  0  0  0  0
   -2.7470   -9.6930   -3.3710 C   0  0  0  0  0  0  0  0  0  0  0  0
   -2.9800   -8.6960   -4.3160 C   0  0  0  0  0  0  0  0  0  0  0  0
   -2.0400   -7.6760   -4.4140 C   0  0  0  0  0  0  0  0  0  0  0  0
   -0.9490   -7.5880   -3.6510 N   0  0  0  0  0  0  0  0  0  0  0  0
   -0.7540   -8.5470   -2.7470 C   0  0  0  0  0  0  0  0  0  0  0  0
   -4.2030   -8.7030   -5.1510 C   0  0  0  0  0  0  0  0  0  0  0  0
   -4.1480   -8.3090   -6.4870 C   0  0  0  0  0  0  0  0  0  0  0  0
   -5.2870   -8.2610   -7.2830 C   0  0  0  0  0  0  0  0  0  0  0  0
   -5.1760   -7.8990   -8.7360 C   0  0  0  0  0  0  0  0  0  0  0  0
   -5.6670   -6.5430   -8.9570 N   0  0  0  0  0  0  0  0  0  0  0  0
   -6.5050   -8.6030   -6.7170 C   0  0  0  0  0  0  0  0  0  0  0  0
   -6.5810   -9.0000   -5.3930 C   0  0  0  0  0  0  0  0  0  0  0  0
   -5.4380   -9.0540   -4.6160 C   0  0  0  0  0  0  0  0  0  0  0  0
 11 10  1  0
 10  9  1  0
  9  8  2  0
  8  7  1  0
  7  6  2  0
  6  5  1  0
 10  5  2  0
  5  4  1  0
  4  3  1  0
  3  2  1  0
  2  1  2  0
 12  2  1  0
 13 12  1  0
 13 18  2  0
 18 17  1  0
 17 16  2  0
 16 15  1  0
 19 15  1  0
 19 26  2  0
 26 25  1  0
 25 24  2  0
 24 21  1  0
 22 21  1  0
 23 22  1  0
 21 20  2  0
 20 19  1  0
 15 14  2  0
 14 13  1  0
M  END
$$$$
