SARS2_Nprot-x1976_A_504_0_1_SARS2_Nprot-A0240+A+504+0+1_LIG
     RDKit          3D

 26 29  0  0  0  0  0  0  0  0999 V2000
    0.6190   -9.6360    1.0780 O   0  0  0  0  0  0  0  0  0  0  0  0
   -0.1180  -10.8330    1.2610 C   0  0  1  0  0  0  0  0  0  0  0  0
   -1.1990  -10.5390    2.2820 C   0  0  0  0  0  0  0  0  0  0  0  0
   -1.8160  -11.7870    2.6160 O   0  0  0  0  0  0  0  0  0  0  0  0
   -2.6950  -11.7860    3.6610 C   0  0  0  0  0  0  0  0  0  0  0  0
   -2.9650  -10.6720    4.4570 C   0  0  0  0  0  0  0  0  0  0  0  0
   -3.8750  -10.8030    5.4990 C   0  0  0  0  0  0  0  0  0  0  0  0
   -4.4930  -12.0140    5.7360 C   0  0  0  0  0  0  0  0  0  0  0  0
   -4.2190  -13.1060    4.9330 C   0  0  0  0  0  0  0  0  0  0  0  0
   -3.3210  -13.0170    3.8740 C   0  0  0  0  0  0  0  0  0  0  0  0
   -3.0720  -14.1920    2.9580 C   0  0  0  0  0  0  0  0  0  0  0  0
   -0.7410  -11.2720   -0.0460 C   0  0  0  0  0  0  0  0  0  0  0  0
   -1.3390  -10.3680   -0.9100 C   0  0  0  0  0  0  0  0  0  0  0  0
   -2.0100  -10.8120   -2.0480 C   0  0  0  0  0  0  0  0  0  0  0  0
   -2.0250  -12.1810   -2.2650 C   0  0  0  0  0  0  0  0  0  0  0  0
   -1.4460  -13.0670   -1.4560 N   0  0  0  0  0  0  0  0  0  0  0  0
   -0.8200  -12.6090   -0.3770 C   0  0  0  0  0  0  0  0  0  0  0  0
   -2.6910   -9.8770   -2.9720 C   0  0  0  0  0  0  0  0  0  0  0  0
   -3.9420  -10.1960   -3.4990 C   0  0  0  0  0  0  0  0  0  0  0  0
   -4.5540   -9.3360   -4.3990 C   0  0  0  0  0  0  0  0  0  0  0  0
   -3.8330   -8.1680   -4.7330 C   0  0  0  0  0  0  0  0  0  0  0  0
   -2.6360   -7.8140   -4.2550 N   0  0  0  0  0  0  0  0  0  0  0  0
   -2.0970   -8.6790   -3.3820 C   0  0  0  0  0  0  0  0  0  0  0  0
   -5.7810   -9.2720   -5.1200 C   0  0  0  0  0  0  0  0  0  0  0  0
   -5.7570   -8.1210   -5.8400 C   0  0  0  0  0  0  0  0  0  0  0  0
   -4.5810   -7.4450   -5.6160 N   0  0  0  0  0  0  0  0  0  0  0  0
 11 10  1  0
 10  9  1  0
  9  8  2  0
  8  7  1  0
  7  6  2  0
  6  5  1  0
 10  5  2  0
  5  4  1  0
  4  3  1  0
  3  2  1  0
  2  1  1  6
 12  2  1  0
 12 17  2  0
 17 16  1  0
 16 15  2  0
 15 14  1  0
 18 14  1  0
 18 23  2  0
 23 22  1  0
 22 21  2  0
 21 26  1  0
 26 25  1  0
 25 24  2  0
 24 20  1  0
 21 20  1  0
 20 19  2  0
 19 18  1  0
 14 13  2  0
 13 12  1  0
M  END
