SARS2_Nprot-x1427_A_504_0_1_SARS2_Nprot-A0240+A+504+0+1__LIG
     RDKit          3D

 26 28  0  0  0  0  0  0  0  0999 V2000
   -3.1090  -12.8330    4.8360 O   0  0  0  0  0  0  0  0  0  0  0  0
   -2.8480  -12.4200    3.7180 N   0  0  0  0  0  0  0  0  0  0  0  0
   -2.9300  -11.2430    3.4020 O   0  0  0  0  0  0  0  0  0  0  0  0
   -2.4090  -13.3790    2.7030 C   0  0  0  0  0  0  0  0  0  0  0  0
   -2.7540  -14.7370    2.7630 C   0  0  0  0  0  0  0  0  0  0  0  0
   -3.4990  -15.1710    3.8160 O   0  0  0  0  0  0  0  0  0  0  0  0
   -3.9070  -16.5290    3.8020 C   0  0  0  0  0  0  0  0  0  0  0  0
   -1.6500  -12.8740    1.6750 C   0  0  0  0  0  0  0  0  0  0  0  0
   -1.2170  -13.7170    0.6620 C   0  0  0  0  0  0  0  0  0  0  0  0
   -1.5560  -15.0590    0.7090 C   0  0  0  0  0  0  0  0  0  0  0  0
   -2.3150  -15.5700    1.7470 C   0  0  0  0  0  0  0  0  0  0  0  0
   -0.3860  -13.1690   -0.4750 C   0  0  2  0  0  0  0  0  0  0  0  0
    0.5540  -12.2310    0.0120 O   0  0  0  0  0  0  0  0  0  0  0  0
   -1.2910  -12.5240   -1.5100 C   0  0  0  0  0  0  0  0  0  0  0  0
   -1.9080  -13.2300   -2.3010 O   0  0  0  0  0  0  0  0  0  0  0  0
   -1.3340  -11.1740   -1.5040 N   0  0  0  0  0  0  0  0  0  0  0  0
   -2.0380  -10.3410   -2.4020 C   0  0  0  0  0  0  0  0  0  0  0  0
   -3.2170  -10.7420   -2.9890 C   0  0  0  0  0  0  0  0  0  0  0  0
   -3.9000   -9.8910   -3.8870 C   0  0  0  0  0  0  0  0  0  0  0  0
   -3.3560   -8.6250   -4.1790 C   0  0  0  0  0  0  0  0  0  0  0  0
   -2.1430   -8.2450   -3.5630 C   0  0  0  0  0  0  0  0  0  0  0  0
   -1.5110   -9.0860   -2.6990 C   0  0  0  0  0  0  0  0  0  0  0  0
   -5.1200  -10.2370   -4.4980 C   0  0  0  0  0  0  0  0  0  0  0  0
   -5.7290   -9.3550   -5.3360 C   0  0  0  0  0  0  0  0  0  0  0  0
   -5.1230   -8.1310   -5.5700 C   0  0  0  0  0  0  0  0  0  0  0  0
   -3.9770   -7.7480   -5.0300 N   0  0  0  0  0  0  0  0  0  0  0  0
  7  6  1  0
  6  5  1  0
  5 11  2  0
 11 10  1  0
 10  9  2  0
 12  9  1  0
 12 13  1  1
 14 12  1  0
 15 14  2  0
 16 14  1  0
 17 16  1  0
 17 22  2  0
 22 21  1  0
 21 20  2  0
 20 26  1  0
 26 25  2  0
 25 24  1  0
 24 23  2  0
 23 19  1  0
 20 19  1  0
 19 18  2  0
 18 17  1  0
  9  8  1  0
  8  4  2  0
  5  4  1  0
  4  2  1  0
  3  2  2  0
  2  1  1  0
M  CHG  2   1  -1   2   1
M  END
$$$$
