SARS2_Nprot-x1285_A_504_1_SARS2_Nprot-A0240+A+504+1__LIG
     RDKit          3D

 26 29  0  0  0  0  0  0  0  0999 V2000
    1.4110  -11.6050    0.8340 O   0  0  0  0  0  0  0  0  0  0  0  0
    0.3460  -10.7000    0.5490 C   0  0  2  0  0  0  0  0  0  0  0  0
   -0.4840  -10.5750    1.8110 C   0  0  0  0  0  0  0  0  0  0  0  0
   -1.2610  -11.7780    1.9610 O   0  0  0  0  0  0  0  0  0  0  0  0
   -2.2050  -11.8450    2.9560 C   0  0  0  0  0  0  0  0  0  0  0  0
   -2.5420  -10.7720    3.7750 C   0  0  0  0  0  0  0  0  0  0  0  0
   -3.4670  -10.9580    4.7880 C   0  0  0  0  0  0  0  0  0  0  0  0
   -4.0610  -12.1880    4.9680 C   0  0  0  0  0  0  0  0  0  0  0  0
   -3.7240  -13.2500    4.1450 C   0  0  0  0  0  0  0  0  0  0  0  0
   -2.7910  -13.1040    3.1230 C   0  0  0  0  0  0  0  0  0  0  0  0
   -2.4040  -14.2730    2.2510 C   0  0  0  0  0  0  0  0  0  0  0  0
   -0.5030  -11.1990   -0.6050 C   0  0  0  0  0  0  0  0  0  0  0  0
   -1.1380  -10.3080   -1.4580 C   0  0  0  0  0  0  0  0  0  0  0  0
   -1.9100  -10.7710   -2.5220 C   0  0  0  0  0  0  0  0  0  0  0  0
   -1.9950  -12.1480   -2.6820 C   0  0  0  0  0  0  0  0  0  0  0  0
   -1.4000  -13.0330   -1.8770 N   0  0  0  0  0  0  0  0  0  0  0  0
   -0.6730  -12.5520   -0.8640 C   0  0  0  0  0  0  0  0  0  0  0  0
   -2.6540   -9.8450   -3.4100 C   0  0  0  0  0  0  0  0  0  0  0  0
   -3.9650  -10.1350   -3.7930 C   0  0  0  0  0  0  0  0  0  0  0  0
   -4.6640   -9.2530   -4.6040 C   0  0  0  0  0  0  0  0  0  0  0  0
   -3.9670   -8.0900   -5.0080 C   0  0  0  0  0  0  0  0  0  0  0  0
   -2.7070   -7.7630   -4.6750 N   0  0  0  0  0  0  0  0  0  0  0  0
   -2.0810   -8.6550   -3.8840 C   0  0  0  0  0  0  0  0  0  0  0  0
   -5.9620   -9.1640   -5.1820 C   0  0  0  0  0  0  0  0  0  0  0  0
   -6.0030   -8.0050   -5.8900 C   0  0  0  0  0  0  0  0  0  0  0  0
   -4.8010   -7.3470   -5.7930 N   0  0  0  0  0  0  0  0  0  0  0  0
 11 10  1  0
 10  9  1  0
  9  8  2  0
  8  7  1  0
  7  6  2  0
  6  5  1  0
 10  5  2  0
  5  4  1  0
  4  3  1  0
  3  2  1  0
  2  1  1  1
 12  2  1  0
 12 17  2  0
 17 16  1  0
 16 15  2  0
 15 14  1  0
 18 14  1  0
 18 23  2  0
 23 22  1  0
 22 21  2  0
 21 26  1  0
 26 25  1  0
 25 24  2  0
 24 20  1  0
 21 20  1  0
 20 19  2  0
 19 18  1  0
 14 13  2  0
 13 12  1  0
M  END
$$$$
