SARS2_Nprot-x1651_A_405_A_1_SARS2_Nprot-A0240+A+504+0+1_ALIG
     RDKit          3D

 31 34  0  0  0  0  0  0  0  0999 V2000
   -1.1350  -14.7030   -0.5120 O   0  0  0  0  0  0  0  0  0  0  0  0
   -0.8750  -13.5050   -0.4480 C   0  0  0  0  0  0  0  0  0  0  0  0
   -0.2660  -12.9120    0.7960 C   0  0  0  0  0  0  0  0  0  0  0  0
   -0.9160  -13.4220    1.9330 O   0  0  0  0  0  0  0  0  0  0  0  0
   -1.7280  -12.6040    2.6660 C   0  0  0  0  0  0  0  0  0  0  0  0
   -1.4910  -11.2530    2.9830 C   0  0  0  0  0  0  0  0  0  0  0  0
   -2.4500  -10.5720    3.7160 C   0  0  0  0  0  0  0  0  0  0  0  0
   -3.6040  -11.2210    4.1340 C   0  0  0  0  0  0  0  0  0  0  0  0
   -3.8120  -12.5530    3.8220 C   0  0  0  0  0  0  0  0  0  0  0  0
   -2.8840  -13.2760    3.0770 C   0  0  0  0  0  0  0  0  0  0  0  0
   -3.1260  -14.7310    2.7140 C   0  0  0  0  0  0  0  0  0  0  0  0
   -0.9400  -12.6560   -1.4760 N   0  0  0  0  0  0  0  0  0  0  0  0
   -1.9710  -12.2430   -2.3370 C   0  0  0  0  0  0  0  0  0  0  0  0
   -1.9250  -10.9240   -2.7770 C   0  0  0  0  0  0  0  0  0  0  0  0
   -2.7040  -10.5270   -3.8630 C   0  0  0  0  0  0  0  0  0  0  0  0
   -3.5430  -11.4860   -4.4170 C   0  0  0  0  0  0  0  0  0  0  0  0
   -3.6390  -12.7420   -3.9810 N   0  0  0  0  0  0  0  0  0  0  0  0
   -2.8660  -13.1020   -2.9580 C   0  0  0  0  0  0  0  0  0  0  0  0
   -2.5940   -9.1640   -4.4470 C   0  0  0  0  0  0  0  0  0  0  0  0
   -1.3820   -8.4820   -4.5070 C   0  0  0  0  0  0  0  0  0  0  0  0
   -1.2250   -7.2740   -5.0660 N   0  0  0  0  0  0  0  0  0  0  0  0
   -2.3040   -6.6770   -5.5870 C   0  0  0  0  0  0  0  0  0  0  0  0
   -3.5540   -7.2790   -5.5930 C   0  0  0  0  0  0  0  0  0  0  0  0
   -3.6870   -8.5290   -5.0160 C   0  0  0  0  0  0  0  0  0  0  0  0
   -2.1930   -5.2560   -6.1420 C   0  0  0  0  0  0  0  0  0  0  0  0
   -1.3280   -5.3700   -7.2720 N   0  0  0  0  0  0  0  0  0  0  0  0
   -3.6090   -4.8060   -6.5530 C   0  0  0  0  0  0  0  0  0  0  0  0
   -3.7420   -3.3010   -6.6180 C   0  0  0  0  0  0  0  0  0  0  0  0
   -3.3470   -2.7030   -5.4020 O   0  0  0  0  0  0  0  0  0  0  0  0
   -1.9470   -2.8740   -5.2860 C   0  0  0  0  0  0  0  0  0  0  0  0
   -1.5930   -4.3320   -5.0620 C   0  0  0  0  0  0  0  0  0  0  0  0
 11 10  1  0
 10  9  1  0
  9  8  2  0
  8  7  1  0
  7  6  2  0
  6  5  1  0
 10  5  2  0
  5  4  1  0
  4  3  1  0
  3  2  1  0
  2  1  2  0
 12  2  1  0
 13 12  1  0
 13 18  2  0
 18 17  1  0
 17 16  2  0
 16 15  1  0
 19 15  1  0
 19 24  2  0
 24 23  1  0
 23 22  2  0
 25 22  1  0
 26 25  1  0
 25 31  1  0
 31 30  1  0
 30 29  1  0
 29 28  1  0
 28 27  1  0
 27 25  1  0
 22 21  1  0
 21 20  2  0
 20 19  1  0
 15 14  2  0
 14 13  1  0
M  END
$$$$
