SARS2_Nprot-x1594_A_405_0_1_SARS2_Nprot-x1396+A+504+0+1__LIG
     RDKit          3D

 31 35  0  0  0  0  0  0  0  0999 V2000
   22.0670    1.4280    9.4860 C   0  0  0  0  0  0  0  0  0  0  0  0
   22.8600    2.1660    8.6360 C   0  0  0  0  0  0  0  0  0  0  0  0
   21.5480    2.0040   10.6320 C   0  0  0  0  0  0  0  0  0  0  0  0
   21.7950    3.3380   10.9280 C   0  0  0  0  0  0  0  0  0  0  0  0
   22.6180    4.0620   10.0780 C   0  0  0  0  0  0  0  0  0  0  0  0
   23.1490    3.4780    8.9400 C   0  0  0  0  0  0  0  0  0  0  0  0
   21.1330    4.0020   12.1130 C   0  0  0  0  0  0  0  0  0  0  0  0
   19.9690    4.8180   11.7370 N   0  0  0  0  0  0  0  0  0  0  0  0
   19.4790    5.8910   12.3930 C   0  0  0  0  0  0  0  0  0  0  0  0
   18.4430    6.4140   11.7670 N   0  0  0  0  0  0  0  0  0  0  0  0
   18.2640    5.6190   10.6520 C   0  0  0  0  0  0  0  0  0  0  0  0
   19.1930    4.6330   10.6200 C   0  0  0  0  0  0  0  0  0  0  0  0
   20.0500    6.3990   13.6730 C   0  0  2  0  0  0  0  0  0  0  0  0
   18.9520    6.8280   14.6590 C   0  0  0  0  0  0  0  0  0  0  0  0
   19.5600    7.3070   15.9820 C   0  0  0  0  0  0  0  0  0  0  0  0
   20.5750    8.4280   15.7740 C   0  0  2  0  0  0  0  0  0  0  0  0
   21.6420    8.0210   14.7560 C   0  0  0  0  0  0  0  0  0  0  0  0
   21.0190    7.5620   13.4340 C   0  0  0  0  0  0  0  0  0  0  0  0
   21.3110    8.5820   17.0400 N   0  0  0  0  0  0  0  0  0  0  0  0
   20.9800    9.8240   17.7250 C   0  0  0  0  0  0  0  0  0  0  0  0
   20.5320    9.5180   19.1060 C   0  0  0  0  0  0  0  0  0  0  0  0
   21.0290   10.1040   20.2500 C   0  0  0  0  0  0  0  0  0  0  0  0
   20.3690    9.5630   21.2970 N   0  0  0  0  0  0  0  0  0  0  0  0
   19.4410    8.6490   20.8970 N   0  0  0  0  0  0  0  0  0  0  0  0
   19.5530    8.6260   19.5750 C   0  0  0  0  0  0  0  0  0  0  0  0
   20.5970    9.7900   22.6880 C   0  0  0  0  0  0  0  0  0  0  0  0
   20.6400    8.7140   23.5660 C   0  0  0  0  0  0  0  0  0  0  0  0
   20.9880    8.9260   24.8910 C   0  0  0  0  0  0  0  0  0  0  0  0
   21.2860   10.1990   25.3410 C   0  0  0  0  0  0  0  0  0  0  0  0
   21.2260   11.2700   24.4690 C   0  0  0  0  0  0  0  0  0  0  0  0
   20.8790   11.0740   23.1420 C   0  0  0  0  0  0  0  0  0  0  0  0
  2  6  2  0
  6  5  1  0
  5  4  2  0
  7  4  1  0
  8  7  1  0
  8 12  1  0
 12 11  2  0
 11 10  1  0
 10  9  2  0
  9  8  1  0
 13  9  1  6
 13 18  1  0
 18 17  1  0
 17 16  1  0
 16 19  1  1
 20 19  1  0
 21 20  1  0
 21 25  1  0
 25 24  2  0
 24 23  1  0
 26 23  1  0
 26 31  2  0
 31 30  1  0
 30 29  2  0
 29 28  1  0
 28 27  2  0
 27 26  1  0
 23 22  1  0
 22 21  2  0
 16 15  1  0
 15 14  1  0
 14 13  1  0
  4  3  1  0
  3  1  2  0
  2  1  1  0
M  END
$$$$
