SARS2_Nprot-x0797_A_504_0_1_SARS2_Nprot-A0240+A+504+0+1__LIG
     RDKit          3D

 24 27  0  0  0  0  0  0  0  0999 V2000
   -4.2150  -11.0830    5.3620 Cl  0  0  0  0  0  0  0  0  0  0  0  0
   -3.2030  -11.6160    4.0500 C   0  0  0  0  0  0  0  0  0  0  0  0
   -3.1850  -12.9590    3.7300 C   0  0  0  0  0  0  0  0  0  0  0  0
   -2.4740  -10.6780    3.3390 C   0  0  0  0  0  0  0  0  0  0  0  0
   -1.7150  -11.0850    2.2530 C   0  0  0  0  0  0  0  0  0  0  0  0
   -1.6830  -12.4260    1.8800 C   0  0  0  0  0  0  0  0  0  0  0  0
   -2.4220  -13.3510    2.6400 C   0  0  0  0  0  0  0  0  0  0  0  0
   -2.2360  -14.5880    2.0760 N   0  0  0  0  0  0  0  0  0  0  0  0
   -1.4130  -14.4630    0.9930 C   0  0  0  0  0  0  0  0  0  0  0  0
   -1.0500  -13.1600    0.8220 C   0  0  0  0  0  0  0  0  0  0  0  0
   -0.2170  -12.5870   -0.2840 C   0  0  0  0  0  0  0  0  0  0  0  0
   -1.0670  -12.1730   -1.4650 C   0  0  0  0  0  0  0  0  0  0  0  0
   -1.6970  -13.0020   -2.1140 O   0  0  0  0  0  0  0  0  0  0  0  0
   -1.0750  -10.8490   -1.7300 N   0  0  0  0  0  0  0  0  0  0  0  0
   -1.8610  -10.1750   -2.6910 C   0  0  0  0  0  0  0  0  0  0  0  0
   -3.1360  -10.5940   -2.9990 C   0  0  0  0  0  0  0  0  0  0  0  0
   -3.9110   -9.9000   -3.9560 C   0  0  0  0  0  0  0  0  0  0  0  0
   -3.3600   -8.7690   -4.5940 C   0  0  0  0  0  0  0  0  0  0  0  0
   -2.0470   -8.3700   -4.2600 C   0  0  0  0  0  0  0  0  0  0  0  0
   -1.3270   -9.0600   -3.3330 C   0  0  0  0  0  0  0  0  0  0  0  0
   -5.2260  -10.2670   -4.2970 C   0  0  0  0  0  0  0  0  0  0  0  0
   -5.9200   -9.5320   -5.2070 C   0  0  0  0  0  0  0  0  0  0  0  0
   -5.3050   -8.4320   -5.7840 C   0  0  0  0  0  0  0  0  0  0  0  0
   -4.0680   -8.0400   -5.5140 N   0  0  0  0  0  0  0  0  0  0  0  0
 13 12  2  0
 12 11  1  0
 11 10  1  0
 10  9  2  0
  9  8  1  0
  8  7  1  0
  7  3  1  0
  3  2  2  0
  2  1  1  0
  4  2  1  0
  5  4  2  0
  6  5  1  0
 10  6  1  0
  7  6  2  0
 14 12  1  0
 15 14  1  0
 15 20  2  0
 20 19  1  0
 19 18  2  0
 18 24  1  0
 24 23  2  0
 23 22  1  0
 22 21  2  0
 21 17  1  0
 18 17  1  0
 17 16  2  0
 16 15  1  0
M  END
$$$$
