SARS2_Nprot-x1626_A_405_1_SARS2_Nprot-x1626+A+405+1__LIG
     RDKit          3D

 29 31  0  0  0  0  0  0  0  0999 V2000
    2.9200  -13.8400   27.8740 O   0  0  0  0  0  0  0  0  0  0  0  0
    1.8480  -14.3500   28.0330 C   0  0  0  0  0  0  0  0  0  0  0  0
    1.2800  -14.4910   29.1760 O   0  0  0  0  0  0  0  0  0  0  0  0
    1.0680  -14.8730   26.8990 C   0  0  0  0  0  0  0  0  0  0  0  0
    0.4930  -14.0590   25.9330 C   0  0  0  0  0  0  0  0  0  0  0  0
    0.8410  -12.7430   25.9390 O   0  0  0  0  0  0  0  0  0  0  0  0
    0.7500  -12.1060   24.6980 C   0  0  0  0  0  0  0  0  0  0  0  0
    0.8620  -16.2500   26.7980 C   0  0  0  0  0  0  0  0  0  0  0  0
    0.1090  -16.7780   25.7660 C   0  0  0  0  0  0  0  0  0  0  0  0
   -0.4870  -15.9540   24.8260 C   0  0  0  0  0  0  0  0  0  0  0  0
   -0.2850  -14.5840   24.9270 C   0  0  0  0  0  0  0  0  0  0  0  0
   -1.3140  -16.4600   23.7170 C   0  0  0  0  0  0  0  0  0  0  0  0
   -2.1880  -17.5480   23.8220 C   0  0  0  0  0  0  0  0  0  0  0  0
   -3.0340  -17.8380   22.7500 C   0  0  0  0  0  0  0  0  0  0  0  0
   -3.0110  -16.9860   21.6660 C   0  0  0  0  0  0  0  0  0  0  0  0
   -2.1930  -15.9450   21.5730 N   0  0  0  0  0  0  0  0  0  0  0  0
   -1.3490  -15.7290   22.5570 C   0  0  0  0  0  0  0  0  0  0  0  0
   -3.8780  -18.9650   22.5980 N   0  0  0  0  0  0  0  0  0  0  0  0
   -5.0150  -19.0730   21.8750 C   0  0  0  0  0  0  0  0  0  0  0  0
   -5.4970  -18.1800   21.1900 O   0  0  0  0  0  0  0  0  0  0  0  0
   -5.7160  -20.4130   21.9130 C   0  0  0  0  0  0  0  0  0  0  0  0
   -4.8620  -21.5330   22.0700 O   0  0  0  0  0  0  0  0  0  0  0  0
   -4.0330  -21.9030   21.0460 C   0  0  0  0  0  0  0  0  0  0  0  0
   -3.2920  -23.0670   21.2860 C   0  0  0  0  0  0  0  0  0  0  0  0
   -3.4770  -23.8810   22.5400 C   0  0  0  0  0  0  0  0  0  0  0  0
   -2.3480  -23.4410   20.3380 C   0  0  0  0  0  0  0  0  0  0  0  0
   -2.1250  -22.6740   19.2060 C   0  0  0  0  0  0  0  0  0  0  0  0
   -2.8720  -21.5300   18.9880 C   0  0  0  0  0  0  0  0  0  0  0  0
   -3.8440  -21.1480   19.8980 C   0  0  0  0  0  0  0  0  0  0  0  0
  7  6  1  0
  6  5  1  0
  5 11  2  0
 11 10  1  0
 12 10  1  0
 12 17  2  0
 17 16  1  0
 16 15  2  0
 15 14  1  0
 18 14  1  0
 19 18  1  0
 20 19  2  0
 21 19  1  0
 22 21  1  0
 23 22  1  0
 23 29  2  0
 29 28  1  0
 28 27  2  0
 27 26  1  0
 26 24  2  0
 24 23  1  0
 25 24  1  0
 14 13  2  0
 13 12  1  0
 10  9  2  0
  9  8  1  0
  8  4  2  0
  5  4  1  0
  4  2  1  0
  2  1  2  0
  3  2  1  0
M  END
$$$$
