SARS2_Nprot-x1167_A_504_0_1_SARS2_Nprot-A0240+A+504+0+1_LIG
     RDKit          3D

 29 31  0  0  0  0  0  0  0  0999 V2000
   -0.2180  -15.3380   -1.0490 O   0  0  0  0  0  0  0  0  0  0  0  0
   -0.2470  -14.2030   -0.5810 C   0  0  0  0  0  0  0  0  0  0  0  0
    0.4220  -13.9170    0.7440 C   0  0  0  0  0  0  0  0  0  0  0  0
   -0.3400  -12.9770    1.4990 O   0  0  0  0  0  0  0  0  0  0  0  0
   -1.4230  -13.4160    2.2230 C   0  0  0  0  0  0  0  0  0  0  0  0
   -1.8720  -14.7340    2.2600 C   0  0  0  0  0  0  0  0  0  0  0  0
   -2.9960  -15.0470    3.0060 C   0  0  0  0  0  0  0  0  0  0  0  0
   -3.6600  -14.0640    3.7080 C   0  0  0  0  0  0  0  0  0  0  0  0
   -3.2040  -12.7580    3.6740 C   0  0  0  0  0  0  0  0  0  0  0  0
   -2.0750  -12.4060    2.9370 C   0  0  0  0  0  0  0  0  0  0  0  0
   -1.5540  -10.9910    2.9450 C   0  0  0  0  0  0  0  0  0  0  0  0
   -0.8840  -13.1520   -1.1460 N   0  0  0  0  0  0  0  0  0  0  0  0
   -1.7860  -13.1440   -2.2400 C   0  0  0  0  0  0  0  0  0  0  0  0
   -2.2280  -11.9030   -2.6860 C   0  0  0  0  0  0  0  0  0  0  0  0
   -3.1320  -11.8280   -3.7440 C   0  0  0  0  0  0  0  0  0  0  0  0
   -3.5650  -13.0290   -4.2990 C   0  0  0  0  0  0  0  0  0  0  0  0
   -3.1530  -14.2340   -3.8920 N   0  0  0  0  0  0  0  0  0  0  0  0
   -2.2770  -14.2780   -2.8830 C   0  0  0  0  0  0  0  0  0  0  0  0
   -3.5170  -10.5120   -4.3150 C   0  0  0  0  0  0  0  0  0  0  0  0
   -4.8520  -10.1760   -4.5290 C   0  0  0  0  0  0  0  0  0  0  0  0
   -5.2000   -8.9670   -5.1060 C   0  0  0  0  0  0  0  0  0  0  0  0
   -4.2280   -8.0580   -5.4970 C   0  0  0  0  0  0  0  0  0  0  0  0
   -2.8990   -8.3760   -5.2620 C   0  0  0  0  0  0  0  0  0  0  0  0
   -2.5490   -9.5810   -4.6810 C   0  0  0  0  0  0  0  0  0  0  0  0
   -4.5970   -6.7910   -6.2310 C   0  0  0  0  0  0  0  0  0  0  0  0
   -4.1170   -6.8180   -7.6800 C   0  0  0  0  0  0  0  0  0  0  0  0
   -4.6430   -5.7170   -8.4900 N   0  0  0  0  0  0  0  0  0  0  0  0
   -3.9530   -4.4680   -8.1850 C   0  0  0  0  0  0  0  0  0  0  0  0
   -4.5190   -6.0180   -9.9130 C   0  0  0  0  0  0  0  0  0  0  0  0
 11 10  1  0
 10  9  1  0
  9  8  2  0
  8  7  1  0
  7  6  2  0
  6  5  1  0
 10  5  2  0
  5  4  1  0
  4  3  1  0
  3  2  1  0
  2  1  2  0
 12  2  1  0
 13 12  1  0
 13 18  2  0
 18 17  1  0
 17 16  2  0
 16 15  1  0
 19 15  1  0
 19 24  2  0
 24 23  1  0
 23 22  2  0
 25 22  1  0
 26 25  1  0
 27 26  1  0
 29 27  1  0
 28 27  1  0
 22 21  1  0
 21 20  2  0
 20 19  1  0
 15 14  2  0
 14 13  1  0
M  END
