SARS2_Nprot-x1882_A_501_1_SARS2_Nprot-A0240+A+504+1_LIG
     RDKit          3D

 46 52  0  0  0  0  0  0  0  0999 V2000
   -5.6530   -8.4000   -5.7170 C   0  0  0  0  0  0  0  0  0  0  0  0
   -6.2920   -9.5640   -6.0980 C   0  0  0  0  0  0  0  0  0  0  0  0
   -4.5310   -8.4480   -4.9070 C   0  0  0  0  0  0  0  0  0  0  0  0
   -4.0520   -9.6780   -4.4740 C   0  0  0  0  0  0  0  0  0  0  0  0
   -4.6860  -10.8510   -4.8600 C   0  0  0  0  0  0  0  0  0  0  0  0
   -5.8070  -10.7870   -5.6710 C   0  0  0  0  0  0  0  0  0  0  0  0
   -2.9250   -9.7340   -3.6000 N   0  0  0  0  0  0  0  0  0  0  0  0
   -1.9480   -8.7880   -3.6860 N   0  0  0  0  0  0  0  0  0  0  0  0
   -1.0830   -9.1260   -2.7400 C   0  0  0  0  0  0  0  0  0  0  0  0
   -1.4770  -10.2770   -2.0380 C   0  0  0  0  0  0  0  0  0  0  0  0
   -2.6700  -10.6380   -2.6300 C   0  0  0  0  0  0  0  0  0  0  0  0
   -0.8330  -10.9790   -0.9070 C   0  0  0  0  0  0  0  0  0  0  0  0
   -1.2670  -10.3250    0.3240 N   0  0  0  0  0  0  0  0  0  0  0  0
   -0.6290  -10.8940    1.5140 C   0  0  0  0  0  0  0  0  0  0  0  0
   -1.5710  -11.7430    2.3320 C   0  0  0  0  0  0  0  0  0  0  0  0
   -1.6180  -13.1230    2.1410 C   0  0  0  0  0  0  0  0  0  0  0  0
   -2.5040  -13.8580    2.8990 C   0  0  0  0  0  0  0  0  0  0  0  0
   -2.6660  -15.2190    2.8240 O   0  0  0  0  0  0  0  0  0  0  0  0
   -3.6500  -15.5040    3.7530 C   0  0  0  0  0  0  0  0  0  0  0  0
   -4.0880  -14.4100    4.3810 C   0  0  0  0  0  0  0  0  0  0  0  0
   -3.3520  -13.3020    3.8400 C   0  0  0  0  0  0  0  0  0  0  0  0
   -3.2980  -11.9200    4.0280 C   0  0  0  0  0  0  0  0  0  0  0  0
   -2.4160  -11.1570    3.2810 C   0  0  0  0  0  0  0  0  0  0  0  0
   -5.7300   -8.4570   -5.6200 C   0  0  0  0  0  0  0  0  0  0  0  0
   -6.3300   -9.6370   -6.0130 C   0  0  0  0  0  0  0  0  0  0  0  0
   -4.5940   -8.4790   -4.8280 C   0  0  0  0  0  0  0  0  0  0  0  0
   -4.0630   -9.6970   -4.4230 C   0  0  0  0  0  0  0  0  0  0  0  0
   -4.6570  -10.8850   -4.8250 C   0  0  0  0  0  0  0  0  0  0  0  0
   -5.7920  -10.8490   -5.6190 C   0  0  0  0  0  0  0  0  0  0  0  0
   -2.9380   -9.7250   -3.5450 N   0  0  0  0  0  0  0  0  0  0  0  0
   -1.9910   -8.7470   -3.6150 N   0  0  0  0  0  0  0  0  0  0  0  0
   -1.1210   -9.0690   -2.6670 C   0  0  0  0  0  0  0  0  0  0  0  0
   -1.4820  -10.2410   -1.9810 C   0  0  0  0  0  0  0  0  0  0  0  0
   -2.6600  -10.6310   -2.5840 C   0  0  0  0  0  0  0  0  0  0  0  0
   -0.8150  -10.9450   -0.8560 C   0  0  0  0  0  0  0  0  0  0  0  0
   -1.1530  -10.2430    0.3830 N   0  0  0  0  0  0  0  0  0  0  0  0
   -0.5710  -10.8810    1.5670 C   0  0  0  0  0  0  0  0  0  0  0  0
   -1.6080  -11.4870    2.4800 C   0  0  0  0  0  0  0  0  0  0  0  0
   -2.2210  -10.7110    3.4640 C   0  0  0  0  0  0  0  0  0  0  0  0
   -3.1860  -11.2980    4.2560 C   0  0  0  0  0  0  0  0  0  0  0  0
   -3.8900  -10.6610    5.2440 O   0  0  0  0  0  0  0  0  0  0  0  0
   -4.7370  -11.6310    5.7510 C   0  0  0  0  0  0  0  0  0  0  0  0
   -4.5830  -12.8080    5.1420 C   0  0  0  0  0  0  0  0  0  0  0  0
   -3.5690  -12.6210    4.1400 C   0  0  0  0  0  0  0  0  0  0  0  0
   -2.9470  -13.3950    3.1600 C   0  0  0  0  0  0  0  0  0  0  0  0
   -1.9800  -12.8280    2.3440 C   0  0  0  0  0  0  0  0  0  0  0  0
  2  6  2  0
  6  5  1  0
  5  4  2  0
  7  4  1  0
  7 11  1  0
 11 10  2  0
 12 10  1  0
 13 12  1  0
 14 13  1  0
 15 14  1  0
 15 23  2  0
 23 22  1  0
 22 21  2  0
 21 20  1  0
 20 19  2  0
 19 18  1  0
 18 17  1  0
 21 17  1  0
 17 16  2  0
 16 15  1  0
 10  9  1  0
  9  8  2  0
  8  7  1  0
  4  3  1  0
  3  1  2  0
  2  1  1  0
 25 29  2  0
 29 28  1  0
 28 27  2  0
 30 27  1  0
 30 34  1  0
 34 33  2  0
 35 33  1  0
 36 35  1  0
 37 36  1  0
 38 37  1  0
 38 46  2  0
 46 45  1  0
 45 44  2  0
 44 43  1  0
 43 42  2  0
 42 41  1  0
 41 40  1  0
 44 40  1  0
 40 39  2  0
 39 38  1  0
 33 32  1  0
 32 31  2  0
 31 30  1  0
 27 26  1  0
 26 24  2  0
 25 24  1  0
M  END
