SARS2_Nprot-x1475_A_405_0_1_SARS2_Nprot-A0240+A+504+0+1_LIG
     RDKit          3D

 30 33  0  0  0  0  0  0  0  0999 V2000
   -3.8280  -13.1780   -6.5390 O   0  0  0  0  0  0  0  0  0  0  0  0
   -4.1650  -13.7260   -5.4790 C   0  0  0  0  0  0  0  0  0  0  0  0
   -5.2530  -14.4820   -5.3700 N   0  0  0  0  0  0  0  0  0  0  0  0
   -3.3280  -13.5550   -4.2470 C   0  0  0  0  0  0  0  0  0  0  0  0
   -2.8820  -14.6990   -3.7000 N   0  0  0  0  0  0  0  0  0  0  0  0
   -2.0580  -14.6160   -2.6520 C   0  0  0  0  0  0  0  0  0  0  0  0
   -2.9850  -12.2860   -3.7450 C   0  0  0  0  0  0  0  0  0  0  0  0
   -3.4250  -10.9930   -4.3370 C   0  0  0  0  0  0  0  0  0  0  0  0
   -4.7750  -10.6450   -4.3830 C   0  0  0  0  0  0  0  0  0  0  0  0
   -5.1520   -9.3970   -4.8600 C   0  0  0  0  0  0  0  0  0  0  0  0
   -6.3640   -8.6830   -5.0790 C   0  0  0  0  0  0  0  0  0  0  0  0
   -6.0250   -7.4750   -5.6000 C   0  0  0  0  0  0  0  0  0  0  0  0
   -4.6610   -7.3790   -5.7280 N   0  0  0  0  0  0  0  0  0  0  0  0
   -4.1040   -8.5430   -5.2790 C   0  0  0  0  0  0  0  0  0  0  0  0
   -2.7950   -8.8280   -5.2600 N   0  0  0  0  0  0  0  0  0  0  0  0
   -2.4910  -10.0510   -4.7910 C   0  0  0  0  0  0  0  0  0  0  0  0
   -2.1260  -12.2400   -2.6480 C   0  0  0  0  0  0  0  0  0  0  0  0
   -1.6410  -13.4160   -2.0910 C   0  0  0  0  0  0  0  0  0  0  0  0
   -0.7640  -13.3100   -0.9820 N   0  0  0  0  0  0  0  0  0  0  0  0
   -0.1510  -14.3000   -0.2980 C   0  0  0  0  0  0  0  0  0  0  0  0
   -0.0660  -15.4660   -0.6770 O   0  0  0  0  0  0  0  0  0  0  0  0
    0.3800  -13.9080    1.0590 C   0  0  0  0  0  0  0  0  0  0  0  0
   -0.5340  -13.0060    1.6750 O   0  0  0  0  0  0  0  0  0  0  0  0
   -1.6280  -13.5130    2.3340 C   0  0  0  0  0  0  0  0  0  0  0  0
   -2.4050  -12.5400    2.9700 C   0  0  0  0  0  0  0  0  0  0  0  0
   -2.0190  -11.0830    2.9330 C   0  0  0  0  0  0  0  0  0  0  0  0
   -1.9490  -14.8650    2.4170 C   0  0  0  0  0  0  0  0  0  0  0  0
   -3.0620  -15.2540    3.1430 C   0  0  0  0  0  0  0  0  0  0  0  0
   -3.8430  -14.3110    3.7740 C   0  0  0  0  0  0  0  0  0  0  0  0
   -3.5180  -12.9690    3.6870 C   0  0  0  0  0  0  0  0  0  0  0  0
 26 25  1  0
 25 30  2  0
 30 29  1  0
 29 28  2  0
 28 27  1  0
 27 24  2  0
 25 24  1  0
 24 23  1  0
 23 22  1  0
 22 20  1  0
 21 20  2  0
 20 19  1  0
 19 18  1  0
 18  6  2  0
  6  5  1  0
  5  4  2  0
  4  2  1  0
  3  2  1  0
  2  1  2  0
  7  4  1  0
  8  7  1  0
  8 16  2  0
 16 15  1  0
 15 14  2  0
 14 13  1  0
 13 12  1  0
 12 11  2  0
 11 10  1  0
 14 10  1  0
 10  9  2  0
  9  8  1  0
 17  7  2  0
 18 17  1  0
M  END
