SARS2_Nprot-x1586_A_501_0_1_SARS2_Nprot-A0240+A+504+0+1_LIG
     RDKit          3D

 26 29  0  0  0  0  0  0  0  0999 V2000
   -0.7020   -7.7760   -6.3980 C   0  0  0  0  0  0  0  0  0  0  0  0
   -1.9950   -8.3650   -5.9880 C   0  0  0  0  0  0  0  0  0  0  0  0
   -1.9570   -9.5510   -5.2880 O   0  0  0  0  0  0  0  0  0  0  0  0
   -3.2810   -9.8110   -5.0140 C   0  0  0  0  0  0  0  0  0  0  0  0
   -4.0320   -8.7890   -5.5690 C   0  0  0  0  0  0  0  0  0  0  0  0
   -3.1710   -7.8770   -6.1850 N   0  0  0  0  0  0  0  0  0  0  0  0
   -3.8350  -10.8570   -4.2840 C   0  0  0  0  0  0  0  0  0  0  0  0
   -5.2150  -10.8580   -4.1210 C   0  0  0  0  0  0  0  0  0  0  0  0
   -5.9940   -9.8470   -4.6650 C   0  0  0  0  0  0  0  0  0  0  0  0
   -5.4150   -8.8110   -5.3850 C   0  0  0  0  0  0  0  0  0  0  0  0
   -2.9840  -11.9530   -3.6870 C   0  0  0  0  0  0  0  0  0  0  0  0
   -2.0930  -11.4510   -2.5550 C   0  0  0  0  0  0  0  0  0  0  0  0
   -1.4970  -12.5770   -1.7370 C   0  0  0  0  0  0  0  0  0  0  0  0
   -0.3800  -12.1100   -0.9160 N   0  0  0  0  0  0  0  0  0  0  0  0
    0.1720  -13.1540   -0.0640 C   0  0  0  0  0  0  0  0  0  0  0  0
   -0.8000  -13.4060    1.0250 C   0  0  0  0  0  0  0  0  0  0  0  0
   -1.5300  -14.5620    1.2130 C   0  0  0  0  0  0  0  0  0  0  0  0
   -2.2450  -14.4000    2.3470 N   0  0  0  0  0  0  0  0  0  0  0  0
   -2.0330  -13.1800    2.9140 N   0  0  0  0  0  0  0  0  0  0  0  0
   -1.1600  -12.5930    2.1090 C   0  0  0  0  0  0  0  0  0  0  0  0
   -3.1240  -15.3320    2.9750 C   0  0  0  0  0  0  0  0  0  0  0  0
   -3.7590  -14.9910    4.1620 C   0  0  0  0  0  0  0  0  0  0  0  0
   -4.6030  -15.9050    4.7720 C   0  0  0  0  0  0  0  0  0  0  0  0
   -4.8140  -17.1470    4.2060 C   0  0  0  0  0  0  0  0  0  0  0  0
   -4.1810  -17.4820    3.0230 C   0  0  0  0  0  0  0  0  0  0  0  0
   -3.3350  -16.5780    2.4030 C   0  0  0  0  0  0  0  0  0  0  0  0
  2  1  1  0
  2  6  2  0
  6  5  1  0
  5 10  2  0
 10  9  1  0
  9  8  2  0
  8  7  1  0
 11  7  1  0
 12 11  1  0
 13 12  1  0
 14 13  1  0
 15 14  1  0
 16 15  1  0
 16 20  1  0
 20 19  2  0
 19 18  1  0
 21 18  1  0
 21 26  2  0
 26 25  1  0
 25 24  2  0
 24 23  1  0
 23 22  2  0
 22 21  1  0
 18 17  1  0
 17 16  2  0
  7  4  2  0
  5  4  1  0
  4  3  1  0
  3  2  1  0
M  END
